6-keto-Prostaglandin F1a.mol
  Mrv0541 02231219592D          

  9  9  0  0  0  0            999 V2000
    0.7145    0.4125    0.0000 C   0  0  0  0  0  0  0  0  0  0  0  0
    0.7145   -0.4125    0.0000 C   0  0  0  0  0  0  0  0  0  0  0  0
    0.0000   -0.8250    0.0000 C   0  0  0  0  0  0  0  0  0  0  0  0
   -0.7145   -0.4125    0.0000 C   0  0  0  0  0  0  0  0  0  0  0  0
   -0.7145    0.4125    0.0000 C   0  0  0  0  0  0  0  0  0  0  0  0
    0.0000    0.8250    0.0000 C   0  0  0  0  0  0  0  0  0  0  0  0
    1.4289    0.8250    0.0000 O   0  0  0  0  0  0  0  0  0  0  0  0
   -1.4289   -0.8250    0.0000 Cl  0  0  0  0  0  0  0  0  0  0  0  0
    1.4289   -0.8250    0.0000 Cl  0  0  0  0  0  0  0  0  0  0  0  0
  1  2  1  0  0  0  0
  2  3  2  0  0  0  0
  3  4  1  0  0  0  0
  4  5  2  0  0  0  0
  5  6  1  0  0  0  0
  1  6  2  0  0  0  0
  1  7  1  0  0  0  0
  4  8  1  0  0  0  0
  2  9  1  0  0  0  0
M  END
> <DATABASE_ID>
HMDB04811

> <DATABASE_NAME>
hmdb

> <SMILES>
OC1=CC=C(Cl)C=C1Cl

> <INCHI_IDENTIFIER>
InChI=1S/C6H4Cl2O/c7-4-1-2-6(9)5(8)3-4/h1-3,9H

> <INCHI_KEY>
HFZWRUODUSTPEG-UHFFFAOYSA-N

> <FORMULA>
C6H4Cl2O

> <MOLECULAR_WEIGHT>
163.001

> <EXACT_MASS>
161.963920164

> <JCHEM_ACCEPTOR_COUNT>
1

> <JCHEM_AVERAGE_POLARIZABILITY>
14.180461077211017

> <JCHEM_BIOAVAILABILITY>
1

> <JCHEM_DONOR_COUNT>
1

> <JCHEM_FORMAL_CHARGE>
0

> <JCHEM_GHOSE_FILTER>
0

> <JCHEM_IUPAC>
2,4-dichlorophenol

> <ALOGPS_LOGP>
3.14

> <JCHEM_LOGP>
2.8777698469999997

> <ALOGPS_LOGS>
-1.82

> <JCHEM_MDDR_LIKE_RULE>
0

> <JCHEM_NUMBER_OF_RINGS>
1

> <JCHEM_PHYSIOLOGICAL_CHARGE>
0

> <JCHEM_PKA_STRONGEST_ACIDIC>
7.440408398071951

> <JCHEM_PKA_STRONGEST_BASIC>
-7.029466957507018

> <JCHEM_POLAR_SURFACE_AREA>
20.23

> <JCHEM_REFRACTIVITY>
37.6485

> <JCHEM_ROTATABLE_BOND_COUNT>
0

> <JCHEM_RULE_OF_FIVE>
1

> <ALOGPS_SOLUBILITY>
2.49e+00 g/l

> <JCHEM_TRADITIONAL_IUPAC>
2,4-dichlorophenol

> <JCHEM_VEBER_RULE>
1

> <HMDB_ID>
HMDB04811

> <GENERIC_NAME>
2,4-Dichlorophenol

> <SYNONYMS>
1,3-Dichloro-4-hydroxybenzene; 2,4-Dichloro-Phenol; 2,4-Dichlorophenate; 2,4-Dichlorophenic acid; 4,6-Dichlorophenol

$$$$
