
  Mrv0541 02231217402D          

 10 10  0  0  0  0            999 V2000
    0.7145   -1.2375    0.0000 O   0  0  0  0  0  0  0  0  0  0  0  0
    0.7145   -0.4125    0.0000 C   0  0  0  0  0  0  0  0  0  0  0  0
    0.0000    0.0000    0.0000 C   0  0  0  0  0  0  0  0  0  0  0  0
    0.0000    0.8250    0.0000 C   0  0  0  0  0  0  0  0  0  0  0  0
    0.7145    1.2375    0.0000 C   0  0  0  0  0  0  0  0  0  0  0  0
    1.4289    0.8250    0.0000 C   0  0  0  0  0  0  0  0  0  0  0  0
    1.4289    0.0000    0.0000 C   0  0  0  0  0  0  0  0  0  0  0  0
    0.7145    2.0625    0.0000 N   0  3  0  0  0  0  0  0  0  0  0  0
    0.0000    2.4750    0.0000 O   0  5  0  0  0  0  0  0  0  0  0  0
    1.4289    2.4750    0.0000 O   0  0  0  0  0  0  0  0  0  0  0  0
  1  2  1  0  0  0  0
  2  3  2  0  0  0  0
  3  4  1  0  0  0  0
  4  5  2  0  0  0  0
  5  6  1  0  0  0  0
  6  7  2  0  0  0  0
  2  7  1  0  0  0  0
  5  8  1  0  0  0  0
  8  9  1  0  0  0  0
  8 10  2  0  0  0  0
M  CHG  2   8   1   9  -1
M  END
> <DATABASE_ID>
HMDB01232

> <DATABASE_NAME>
hmdb

> <SMILES>
OC1=CC=C(C=C1)[N+]([O-])=O

> <INCHI_IDENTIFIER>
InChI=1S/C6H5NO3/c8-6-3-1-5(2-4-6)7(9)10/h1-4,8H

> <INCHI_KEY>
BTJIUGUIPKRLHP-UHFFFAOYSA-N

> <FORMULA>
C6H5NO3

> <MOLECULAR_WEIGHT>
139.1088

> <EXACT_MASS>
139.026943031

> <JCHEM_ACCEPTOR_COUNT>
3

> <JCHEM_AVERAGE_POLARIZABILITY>
12.178799784713927

> <JCHEM_BIOAVAILABILITY>
1

> <JCHEM_DONOR_COUNT>
1

> <JCHEM_FORMAL_CHARGE>
0

> <JCHEM_GHOSE_FILTER>
0

> <JCHEM_IUPAC>
4-nitrophenol

> <ALOGPS_LOGP>
1.93

> <JCHEM_LOGP>
1.6096646836666664

> <ALOGPS_LOGS>
-1.59

> <JCHEM_MDDR_LIKE_RULE>
0

> <JCHEM_NUMBER_OF_RINGS>
1

> <JCHEM_PHYSIOLOGICAL_CHARGE>
0

> <JCHEM_PKA_STRONGEST_ACIDIC>
7.035410600454046

> <JCHEM_PKA_STRONGEST_BASIC>
-7.064769564122728

> <JCHEM_POLAR_SURFACE_AREA>
66.05000000000001

> <JCHEM_REFRACTIVITY>
35.3636

> <JCHEM_ROTATABLE_BOND_COUNT>
1

> <JCHEM_RULE_OF_FIVE>
1

> <ALOGPS_SOLUBILITY>
3.60e+00 g/l

> <JCHEM_TRADITIONAL_IUPAC>
P-nitrophenol

> <JCHEM_VEBER_RULE>
0

> <HMDB_ID>
HMDB01232

> <GENERIC_NAME>
4-Nitrophenol

> <SYNONYMS>
 Mononitrophenol;  p-Hydroxynitrobenzene; 1-Hydroxy-4-nitrobenzene; 4-Hydroxynitrobenzene; 4-Nitrophenol; Niphen; p-Nitrophenol; Paranitrophenol

$$$$
