Uvaol
  Mrv1572001071617182D          

 82 86  0  0  1  0            999 V2000
    2.0919   -2.1923    0.0000 O   0  0  0  0  0  0  0  0  0  0  0  0
    9.4549    0.3540    0.0000 O   0  0  0  0  0  0  0  0  0  0  0  0
    5.8266   -0.9116    0.0000 C   0  0  2  0  0  0  0  0  0  0  0  0
    5.1122   -0.4992    0.0000 C   0  0  1  0  0  0  0  0  0  0  0  0
    4.3615   -0.9173    0.0000 C   0  0  2  0  0  0  0  0  0  0  0  0
    6.5411   -0.4992    0.0000 C   0  0  1  0  0  0  0  0  0  0  0  0
    4.3548   -1.7766    0.0000 C   0  0  1  0  0  0  0  0  0  0  0  0
    5.8399   -1.7709    0.0000 C   0  0  0  0  0  0  0  0  0  0  0  0
    6.5411    0.3258    0.0000 C   0  0  0  0  0  0  0  0  0  0  0  0
    7.2786    0.7669    0.0000 C   0  0  1  0  0  0  0  0  0  0  0  0
    5.0990   -2.2062    0.0000 C   0  0  0  0  0  0  0  0  0  0  0  0
    8.0260    0.3430    0.0000 C   0  0  1  0  0  0  0  0  0  0  0  0
    3.5831   -2.2301    0.0000 C   0  0  0  0  0  0  0  0  0  0  0  0
    7.2786   -0.9402    0.0000 C   0  0  0  0  0  0  0  0  0  0  0  0
    5.1122    0.3258    0.0000 C   0  0  0  0  0  0  0  0  0  0  0  0
    3.5968   -0.4519    0.0000 C   0  0  0  0  0  0  0  0  0  0  0  0
    8.0260   -0.5164    0.0000 C   0  0  0  0  0  0  0  0  0  0  0  0
    6.3569   -1.5436    0.0000 C   0  0  0  0  0  0  0  0  0  0  0  0
    5.8266    0.7383    0.0000 C   0  0  0  0  0  0  0  0  0  0  0  0
    7.2579    1.6617    0.0000 C   0  0  2  0  0  0  0  0  0  0  0  0
    2.8080   -1.7825    0.0000 C   0  0  2  0  0  0  0  0  0  0  0  0
    4.3678   -0.0923    0.0000 C   0  0  0  0  0  0  0  0  0  0  0  0
    6.8233   -1.2743    0.0000 C   0  0  0  0  0  0  0  0  0  0  0  0
    2.8148   -0.8875    0.0000 C   0  0  0  0  0  0  0  0  0  0  0  0
    8.8046    0.7846    0.0000 C   0  0  0  0  0  0  0  0  0  0  0  0
    8.0260    2.1212    0.0000 C   0  0  1  0  0  0  0  0  0  0  0  0
    8.8046    1.6797    0.0000 C   0  0  0  0  0  0  0  0  0  0  0  0
    8.7437   -0.0639    0.0000 C   0  0  0  0  0  0  0  0  0  0  0  0
    3.1734   -2.9462    0.0000 C   0  0  0  0  0  0  0  0  0  0  0  0
    3.9983   -2.9429    0.0000 C   0  0  0  0  0  0  0  0  0  0  0  0
    6.5356    2.0604    0.0000 C   0  0  0  0  0  0  0  0  0  0  0  0
    8.0165    2.9462    0.0000 C   0  0  0  0  0  0  0  0  0  0  0  0
    5.7195   -0.1486    0.0000 H   0  0  0  0  0  0  0  0  0  0  0  0
    4.3575   -2.4778    0.0000 H   0  0  0  0  0  0  0  0  0  0  0  0
    6.0198   -2.2497    0.0000 H   0  0  0  0  0  0  0  0  0  0  0  0
    6.3424   -1.6756    0.0000 H   0  0  0  0  0  0  0  0  0  0  0  0
    6.6646    1.1058    0.0000 H   0  0  0  0  0  0  0  0  0  0  0  0
    4.7712   -2.5989    0.0000 H   0  0  0  0  0  0  0  0  0  0  0  0
    5.4298   -2.5964    0.0000 H   0  0  0  0  0  0  0  0  0  0  0  0
    6.9448   -1.3278    0.0000 H   0  0  0  0  0  0  0  0  0  0  0  0
    7.6033   -1.3354    0.0000 H   0  0  0  0  0  0  0  0  0  0  0  0
    4.9372    0.8065    0.0000 H   0  0  0  0  0  0  0  0  0  0  0  0
    4.6085    0.2370    0.0000 H   0  0  0  0  0  0  0  0  0  0  0  0
    3.9336   -0.0670    0.0000 H   0  0  0  0  0  0  0  0  0  0  0  0
    3.2752   -0.0543    0.0000 H   0  0  0  0  0  0  0  0  0  0  0  0
    8.1985   -0.9979    0.0000 H   0  0  0  0  0  0  0  0  0  0  0  0
    8.5300   -0.4288    0.0000 H   0  0  0  0  0  0  0  0  0  0  0  0
    5.9651   -1.8724    0.0000 H   0  0  0  0  0  0  0  0  0  0  0  0
    6.6857   -1.9354    0.0000 H   0  0  0  0  0  0  0  0  0  0  0  0
    6.7487   -1.2149    0.0000 H   0  0  0  0  0  0  0  0  0  0  0  0
    5.8266    1.2498    0.0000 H   0  0  0  0  0  0  0  0  0  0  0  0
    6.8204    1.3967    0.0000 H   0  0  0  0  0  0  0  0  0  0  0  0
    2.8070   -2.2940    0.0000 H   0  0  0  0  0  0  0  0  0  0  0  0
    4.8793   -0.0963    0.0000 H   0  0  0  0  0  0  0  0  0  0  0  0
    4.3718    0.4192    0.0000 H   0  0  0  0  0  0  0  0  0  0  0  0
    3.8563   -0.0884    0.0000 H   0  0  0  0  0  0  0  0  0  0  0  0
    6.3427   -1.4493    0.0000 H   0  0  0  0  0  0  0  0  0  0  0  0
    6.9983   -1.7550    0.0000 H   0  0  0  0  0  0  0  0  0  0  0  0
    7.3039   -1.0994    0.0000 H   0  0  0  0  0  0  0  0  0  0  0  0
    2.6461   -0.4047    0.0000 H   0  0  0  0  0  0  0  0  0  0  0  0
    2.3103   -0.9711    0.0000 H   0  0  0  0  0  0  0  0  0  0  0  0
    8.9771    0.3030    0.0000 H   0  0  0  0  0  0  0  0  0  0  0  0
    9.3086    0.8721    0.0000 H   0  0  0  0  0  0  0  0  0  0  0  0
    8.4666    2.3812    0.0000 H   0  0  0  0  0  0  0  0  0  0  0  0
    9.3086    1.5921    0.0000 H   0  0  0  0  0  0  0  0  0  0  0  0
    8.9771    2.1612    0.0000 H   0  0  0  0  0  0  0  0  0  0  0  0
    8.4179   -0.4584    0.0000 H   0  0  0  0  0  0  0  0  0  0  0  0
    9.0755   -0.4532    0.0000 H   0  0  0  0  0  0  0  0  0  0  0  0
    2.7294   -2.6921    0.0000 H   0  0  0  0  0  0  0  0  0  0  0  0
    2.9193   -3.3901    0.0000 H   0  0  0  0  0  0  0  0  0  0  0  0
    3.6174   -3.2002    0.0000 H   0  0  0  0  0  0  0  0  0  0  0  0
    3.5564   -3.2004    0.0000 H   0  0  0  0  0  0  0  0  0  0  0  0
    4.2558   -3.3849    0.0000 H   0  0  0  0  0  0  0  0  0  0  0  0
    4.4403   -2.6855    0.0000 H   0  0  0  0  0  0  0  0  0  0  0  0
    6.7828    2.5082    0.0000 H   0  0  0  0  0  0  0  0  0  0  0  0
    6.0878    2.3075    0.0000 H   0  0  0  0  0  0  0  0  0  0  0  0
    6.2885    1.6126    0.0000 H   0  0  0  0  0  0  0  0  0  0  0  0
    8.5279    2.9520    0.0000 H   0  0  0  0  0  0  0  0  0  0  0  0
    8.0106    3.4576    0.0000 H   0  0  0  0  0  0  0  0  0  0  0  0
    7.5051    2.9402    0.0000 H   0  0  0  0  0  0  0  0  0  0  0  0
    1.6500   -1.9348    0.0000 H   0  0  0  0  0  0  0  0  0  0  0  0
    9.8998    0.1017    0.0000 H   0  0  0  0  0  0  0  0  0  0  0  0
 21  1  1  1  0  0  0
  1 81  1  0  0  0  0
  2 28  1  0  0  0  0
  2 82  1  0  0  0  0
  3  4  1  0  0  0  0
  3  6  1  0  0  0  0
  3  8  1  0  0  0  0
  3 18  1  1  0  0  0
  4  5  1  0  0  0  0
  4 15  1  0  0  0  0
  4 33  1  6  0  0  0
  5  7  1  0  0  0  0
  5 16  1  0  0  0  0
  5 22  1  1  0  0  0
  6  9  1  0  0  0  0
  6 14  1  0  0  0  0
  6 23  1  6  0  0  0
  7 11  1  0  0  0  0
  7 13  1  0  0  0  0
  7 34  1  6  0  0  0
  8 11  1  0  0  0  0
  8 35  1  0  0  0  0
  8 36  1  0  0  0  0
  9 10  1  0  0  0  0
  9 19  2  0  0  0  0
 10 12  1  0  0  0  0
 10 20  1  0  0  0  0
 10 37  1  1  0  0  0
 11 38  1  0  0  0  0
 11 39  1  0  0  0  0
 12 17  1  0  0  0  0
 12 25  1  0  0  0  0
 12 28  1  1  0  0  0
 13 21  1  0  0  0  0
 13 29  1  0  0  0  0
 13 30  1  0  0  0  0
 14 17  1  0  0  0  0
 14 40  1  0  0  0  0
 14 41  1  0  0  0  0
 15 19  1  0  0  0  0
 15 42  1  0  0  0  0
 15 43  1  0  0  0  0
 16 24  1  0  0  0  0
 16 44  1  0  0  0  0
 16 45  1  0  0  0  0
 17 46  1  0  0  0  0
 17 47  1  0  0  0  0
 18 48  1  0  0  0  0
 18 49  1  0  0  0  0
 18 50  1  0  0  0  0
 19 51  1  0  0  0  0
 20 26  1  0  0  0  0
 20 31  1  1  0  0  0
 20 52  1  0  0  0  0
 21 24  1  0  0  0  0
 21 53  1  0  0  0  0
 22 54  1  0  0  0  0
 22 55  1  0  0  0  0
 22 56  1  0  0  0  0
 23 57  1  0  0  0  0
 23 58  1  0  0  0  0
 23 59  1  0  0  0  0
 24 60  1  0  0  0  0
 24 61  1  0  0  0  0
 25 27  1  0  0  0  0
 25 62  1  0  0  0  0
 25 63  1  0  0  0  0
 26 27  1  0  0  0  0
 26 32  1  6  0  0  0
 26 64  1  0  0  0  0
 27 65  1  0  0  0  0
 27 66  1  0  0  0  0
 28 67  1  0  0  0  0
 28 68  1  0  0  0  0
 29 69  1  0  0  0  0
 29 70  1  0  0  0  0
 29 71  1  0  0  0  0
 30 72  1  0  0  0  0
 30 73  1  0  0  0  0
 30 74  1  0  0  0  0
 31 75  1  0  0  0  0
 31 76  1  0  0  0  0
 31 77  1  0  0  0  0
 32 78  1  0  0  0  0
 32 79  1  0  0  0  0
 32 80  1  0  0  0  0
M  END
> <DATABASE_ID>
HMDB02391

> <DATABASE_NAME>
hmdb

> <SMILES>
[H]OC([H])([H])[C@]12C([H])([H])C([H])([H])[C@@]([H])(C([H])([H])[H])[C@]([H])(C([H])([H])[H])[C@@]1([H])C1=C([H])C([H])([H])[C@]3([H])[C@@]4(C([H])([H])[H])C([H])([H])C([H])([H])[C@]([H])(O[H])C(C([H])([H])[H])(C([H])([H])[H])[C@]4([H])C([H])([H])C([H])([H])[C@@]3(C([H])([H])[H])[C@]1(C([H])([H])[H])C([H])([H])C2([H])[H]

> <INCHI_IDENTIFIER>
InChI=1S/C30H50O2/c1-19-10-15-30(18-31)17-16-28(6)21(25(30)20(19)2)8-9-23-27(5)13-12-24(32)26(3,4)22(27)11-14-29(23,28)7/h8,19-20,22-25,31-32H,9-18H2,1-7H3/t19-,20+,22+,23-,24+,25+,27+,28-,29-,30-/m1/s1

> <INCHI_KEY>
XUARCIYIVXVTAE-ZAPOICBTSA-N

> <FORMULA>
C30H50O2

> <MOLECULAR_WEIGHT>
442.728

> <EXACT_MASS>
442.38108085

> <JCHEM_ACCEPTOR_COUNT>
2

> <JCHEM_ATOM_COUNT>
82

> <JCHEM_AVERAGE_POLARIZABILITY>
54.67950109012891

> <JCHEM_BIOAVAILABILITY>
1

> <JCHEM_DONOR_COUNT>
2

> <JCHEM_FORMAL_CHARGE>
0

> <JCHEM_GHOSE_FILTER>
0

> <JCHEM_IUPAC>
(3S,4aR,6aR,6bS,8aS,11R,12S,12aS,14aR,14bR)-8a-(hydroxymethyl)-4,4,6a,6b,11,12,14b-heptamethyl-1,2,3,4,4a,5,6,6a,6b,7,8,8a,9,10,11,12,12a,14,14a,14b-icosahydropicen-3-ol

> <ALOGPS_LOGP>
6.13

> <JCHEM_LOGP>
6.109341654000001

> <ALOGPS_LOGS>
-6.21

> <JCHEM_MDDR_LIKE_RULE>
0

> <JCHEM_NUMBER_OF_RINGS>
5

> <JCHEM_PHYSIOLOGICAL_CHARGE>
0

> <JCHEM_PKA>
19.489433291560097

> <JCHEM_PKA_STRONGEST_ACIDIC>
18.953297110466607

> <JCHEM_PKA_STRONGEST_BASIC>
-0.6357052290198816

> <JCHEM_POLAR_SURFACE_AREA>
40.46

> <JCHEM_REFRACTIVITY>
133.75549999999998

> <JCHEM_ROTATABLE_BOND_COUNT>
1

> <JCHEM_RULE_OF_FIVE>
0

> <ALOGPS_SOLUBILITY>
2.72e-04 g/l

> <JCHEM_TRADITIONAL_IUPAC>
uvaol

> <JCHEM_VEBER_RULE>
0

> <HMDB_ID>
HMDB02391

> <GENERIC_NAME>
Uvaol

> <SYNONYMS>
(3.beta.)-Urs-12-ene-3,28-diol; (3beta)-Urs-12-ene-3,28-diol; Urs-12-ene-3,28-diol; Urs-12-ene-3beta,28-diol

$$$$
