
  Mrv0541 02231215452D          

 12 11  0  0  1  0            999 V2000
    7.2849    3.3809    0.0000 N   0  0  0  0  0  0  0  0  0  0  0  0
    7.2849    2.5559    0.0000 C   0  0  1  0  0  0  0  0  0  0  0  0
    6.5704    2.1434    0.0000 C   0  0  0  0  0  0  0  0  0  0  0  0
    5.8559    2.5559    0.0000 C   0  0  0  0  0  0  0  0  0  0  0  0
    5.1414    2.1434    0.0000 O   0  0  0  0  0  0  0  0  0  0  0  0
    4.4270    2.5559    0.0000 N   0  0  0  0  0  0  0  0  0  0  0  0
    3.7125    2.1434    0.0000 C   0  0  0  0  0  0  0  0  0  0  0  0
    2.9980    2.5559    0.0000 N   0  0  0  0  0  0  0  0  0  0  0  0
    3.7125    1.3184    0.0000 N   0  0  0  0  0  0  0  0  0  0  0  0
    7.9993    2.1434    0.0000 C   0  0  0  0  0  0  0  0  0  0  0  0
    8.7138    2.5559    0.0000 O   0  0  0  0  0  0  0  0  0  0  0  0
    7.9993    1.3184    0.0000 O   0  0  0  0  0  0  0  0  0  0  0  0
  2  1  1  6  0  0  0
  2  3  1  0  0  0  0
  3  4  1  0  0  0  0
  4  5  1  0  0  0  0
  5  6  1  0  0  0  0
  6  7  1  0  0  0  0
  7  8  1  0  0  0  0
  7  9  2  0  0  0  0
  2 10  1  0  0  0  0
 10 11  1  0  0  0  0
 10 12  2  0  0  0  0
M  END
> <DATABASE_ID>
HMDB02706

> <DATABASE_NAME>
hmdb

> <SMILES>
N[C@@H](CCONC(N)=N)C(O)=O

> <INCHI_IDENTIFIER>
InChI=1S/C5H12N4O3/c6-3(4(10)11)1-2-12-9-5(7)8/h3H,1-2,6H2,(H,10,11)(H4,7,8,9)/t3-/m0/s1

> <INCHI_KEY>
FSBIGDSBMBYOPN-VKHMYHEASA-N

> <FORMULA>
C5H12N4O3

> <MOLECULAR_WEIGHT>
176.1738

> <EXACT_MASS>
176.09094027

> <JCHEM_ACCEPTOR_COUNT>
7

> <JCHEM_AVERAGE_POLARIZABILITY>
17.02315924148845

> <JCHEM_BIOAVAILABILITY>
1

> <JCHEM_DONOR_COUNT>
5

> <JCHEM_FORMAL_CHARGE>
0

> <JCHEM_GHOSE_FILTER>
0

> <JCHEM_IUPAC>
(2S)-2-amino-4-(carbamimidamidooxy)butanoic acid

> <ALOGPS_LOGP>
-3.86

> <JCHEM_LOGP>
-3.7018804133844996

> <ALOGPS_LOGS>
-1.80

> <JCHEM_MDDR_LIKE_RULE>
0

> <JCHEM_NUMBER_OF_RINGS>
0

> <JCHEM_PHYSIOLOGICAL_CHARGE>
1

> <JCHEM_PKA_STRONGEST_ACIDIC>
2.1032409501189444

> <JCHEM_PKA_STRONGEST_BASIC>
10.343629284146132

> <JCHEM_POLAR_SURFACE_AREA>
134.45000000000002

> <JCHEM_REFRACTIVITY>
61.2436

> <JCHEM_ROTATABLE_BOND_COUNT>
5

> <JCHEM_RULE_OF_FIVE>
1

> <ALOGPS_SOLUBILITY>
2.77e+00 g/l

> <JCHEM_TRADITIONAL_IUPAC>
canavanine

> <JCHEM_VEBER_RULE>
0

> <HMDB_ID>
HMDB02706

> <GENERIC_NAME>
Canavanine

> <SYNONYMS>
 Canavanin; 2-Amino-4-(guanidinooxy)butyric acid; L-Canavanine; O-((Aminoiminomethyl)amino)homoserine

$$$$
