
  Mrv0541 02231218452D          

 15 15  0  0  1  0            999 V2000
   12.4494   -8.6731    0.0000 C   0  0  0  0  0  0  0  0  0  0  0  0
   14.7220  -11.4711    0.0000 C   0  0  0  0  0  0  0  0  0  0  0  0
   11.8244   -8.9364    0.0000 C   0  0  0  0  0  0  0  0  0  0  0  0
   13.9678  -10.9990    0.0000 C   0  0  2  0  0  0  0  0  0  0  0  0
   12.5389  -10.1740    0.0000 C   0  0  2  0  0  0  0  0  0  0  0  0
   13.2533  -11.4115    0.0000 C   0  0  2  0  0  0  0  0  0  0  0  0
   12.5389  -10.9990    0.0000 C   0  0  2  0  0  0  0  0  0  0  0  0
   13.2533   -9.7615    0.0000 C   0  0  2  0  0  0  0  0  0  0  0  0
   11.8244   -9.7615    0.0000 N   0  0  0  0  0  0  0  0  0  0  0  0
   15.4675  -10.9542    0.0000 O   0  0  0  0  0  0  0  0  0  0  0  0
   11.2689   -8.6233    0.0000 O   0  0  0  0  0  0  0  0  0  0  0  0
   13.2533  -12.2365    0.0000 O   0  0  0  0  0  0  0  0  0  0  0  0
   11.8244  -11.4115    0.0000 O   0  0  0  0  0  0  0  0  0  0  0  0
   13.5416   -9.0557    0.0000 O   0  0  0  0  0  0  0  0  0  0  0  0
   13.9678  -10.1740    0.0000 O   0  0  0  0  0  0  0  0  0  0  0  0
  1  3  1  0  0  0  0
  4  2  1  6  0  0  0
  2 10  1  0  0  0  0
  3 11  2  0  0  0  0
  3  9  1  0  0  0  0
  4  6  1  0  0  0  0
  4 15  1  0  0  0  0
  5  9  1  1  0  0  0
  5  7  1  0  0  0  0
  5  8  1  0  0  0  0
  6  7  1  0  0  0  0
  6 12  1  1  0  0  0
  7 13  1  6  0  0  0
  8 15  1  0  0  0  0
  8 14  1  6  0  0  0
M  END
> <DATABASE_ID>
HMDB00803

> <DATABASE_NAME>
hmdb

> <SMILES>
CC(=O)N[C@H]1[C@H](O)O[C@H](CO)[C@@H](O)[C@@H]1O

> <INCHI_IDENTIFIER>
InChI=1S/C8H15NO6/c1-3(11)9-5-7(13)6(12)4(2-10)15-8(5)14/h4-8,10,12-14H,2H2,1H3,(H,9,11)/t4-,5-,6-,7-,8-/m1/s1

> <INCHI_KEY>
OVRNDRQMDRJTHS-FMDGEEDCSA-N

> <FORMULA>
C8H15NO6

> <MOLECULAR_WEIGHT>
221.2078

> <EXACT_MASS>
221.089937217

> <JCHEM_ACCEPTOR_COUNT>
6

> <JCHEM_AVERAGE_POLARIZABILITY>
21.09516765491594

> <JCHEM_BIOAVAILABILITY>
1

> <JCHEM_DONOR_COUNT>
5

> <JCHEM_FORMAL_CHARGE>
0

> <JCHEM_GHOSE_FILTER>
0

> <JCHEM_IUPAC>
N-[(2R,3R,4R,5S,6R)-2,4,5-trihydroxy-6-(hydroxymethyl)oxan-3-yl]acetamide

> <ALOGPS_LOGP>
-2.60

> <JCHEM_LOGP>
-3.220574411666667

> <ALOGPS_LOGS>
0.06

> <JCHEM_MDDR_LIKE_RULE>
0

> <JCHEM_NUMBER_OF_RINGS>
1

> <JCHEM_PHYSIOLOGICAL_CHARGE>
0

> <JCHEM_PKA>
12.811681816701025

> <JCHEM_PKA_STRONGEST_ACIDIC>
11.604129514800581

> <JCHEM_PKA_STRONGEST_BASIC>
-0.7815744979932194

> <JCHEM_POLAR_SURFACE_AREA>
119.25000000000001

> <JCHEM_REFRACTIVITY>
47.024699999999996

> <JCHEM_ROTATABLE_BOND_COUNT>
2

> <JCHEM_RULE_OF_FIVE>
1

> <ALOGPS_SOLUBILITY>
2.54e+02 g/l

> <JCHEM_TRADITIONAL_IUPAC>
N-acetyl-D-glucosamine

> <JCHEM_VEBER_RULE>
0

> <HMDB_ID>
HMDB00803

> <GENERIC_NAME>
Beta-N-Acetylglucosamine

> <SYNONYMS>
2-Acetamido-2-deoxy-b-D-glucose; 2-Acetamido-2-deoxy-beta-D-glucose; 2-Acetamido-2-deoxy-beta-delta-glucose; b-N-Acetyl-D-glucosamine; b-N-Acetylglucosamine; beta-N-Acetyl-D-glucosamine; beta-N-Acetyl-delta-glucosamine; beta-N-Acetylglucosamine; N-Acetyl-b-D-glucosamine; N-Acetyl-beta-D-glucosamine

$$$$
