menthol
  Mrv1572001071617082D          

 11 11  0  0  1  0            999 V2000
    0.0000    2.4750    0.0000 C   0  0  0  0  0  0  0  0  0  0  0  0
    0.7145    2.0625    0.0000 C   0  0  0  0  0  0  0  0  0  0  0  0
    1.4289    2.4750    0.0000 C   0  0  0  0  0  0  0  0  0  0  0  0
    0.7145    1.2375    0.0000 C   0  0  2  0  0  0  0  0  0  0  0  0
    1.4289    0.8250    0.0000 C   0  0  0  0  0  0  0  0  0  0  0  0
    1.4289    0.0000    0.0000 C   0  0  0  0  0  0  0  0  0  0  0  0
    0.7145   -0.4125    0.0000 C   0  0  1  0  0  0  0  0  0  0  0  0
    0.7145   -1.2375    0.0000 C   0  0  0  0  0  0  0  0  0  0  0  0
    0.0000    0.0000    0.0000 C   0  0  0  0  0  0  0  0  0  0  0  0
    0.0000    0.8250    0.0000 C   0  0  1  0  0  0  0  0  0  0  0  0
   -0.7145    1.2375    0.0000 O   0  0  0  0  0  0  0  0  0  0  0  0
  1  2  1  0  0  0  0
  2  3  1  0  0  0  0
  4  2  1  6  0  0  0
  4  5  1  0  0  0  0
  5  6  1  0  0  0  0
  6  7  1  0  0  0  0
  7  8  1  1  0  0  0
  7  9  1  0  0  0  0
  9 10  1  0  0  0  0
  4 10  1  0  0  0  0
 10 11  1  1  0  0  0
M  END
> <DATABASE_ID>
HMDB03352

> <DATABASE_NAME>
hmdb

> <SMILES>
CC(C)[C@@H]1CC[C@@H](C)C[C@H]1O

> <INCHI_IDENTIFIER>
InChI=1S/C10H20O/c1-7(2)9-5-4-8(3)6-10(9)11/h7-11H,4-6H2,1-3H3/t8-,9+,10-/m1/s1

> <INCHI_KEY>
NOOLISFMXDJSKH-KXUCPTDWSA-N

> <FORMULA>
C10H20O

> <MOLECULAR_WEIGHT>
156.269

> <EXACT_MASS>
156.151415264

> <JCHEM_ACCEPTOR_COUNT>
1

> <JCHEM_ATOM_COUNT>
31

> <JCHEM_AVERAGE_POLARIZABILITY>
19.69012569770345

> <JCHEM_BIOAVAILABILITY>
1

> <JCHEM_DONOR_COUNT>
1

> <JCHEM_FORMAL_CHARGE>
0

> <JCHEM_GHOSE_FILTER>
0

> <JCHEM_IUPAC>
(1R,2S,5R)-5-methyl-2-(propan-2-yl)cyclohexan-1-ol

> <ALOGPS_LOGP>
2.68

> <JCHEM_LOGP>
2.6642731470000007

> <ALOGPS_LOGS>
-2.45

> <JCHEM_MDDR_LIKE_RULE>
0

> <JCHEM_NUMBER_OF_RINGS>
1

> <JCHEM_PHYSIOLOGICAL_CHARGE>
0

> <JCHEM_PKA_STRONGEST_ACIDIC>
19.54964736878105

> <JCHEM_PKA_STRONGEST_BASIC>
-0.8087842408951696

> <JCHEM_POLAR_SURFACE_AREA>
20.23

> <JCHEM_REFRACTIVITY>
47.445299999999996

> <JCHEM_ROTATABLE_BOND_COUNT>
1

> <JCHEM_RULE_OF_FIVE>
1

> <ALOGPS_SOLUBILITY>
5.58e-01 g/l

> <JCHEM_TRADITIONAL_IUPAC>
menthol

> <JCHEM_VEBER_RULE>
1

> <HMDB_ID>
HMDB03352

> <GENERIC_NAME>
Menthol

> <SYNONYMS>
(-)-(1R,3R,4S)-Menthol; (-)-Menthyl alcohol; (-)-trans-p-Menthan-cis-ol; (1R)-(-)-Menthol; (1R,2S,5R)-(-)-menthol; (R)-(-)-Menthol; 1-Menthol; 2-Isopropyl-5-methylcyclohexanol; 5-Methyl-2-(1-methylethyl)cyclohexanol; 5-methyl-2-propan-2-ylcyclohexan-1-ol; D-(-)-Menthol; Hexahydrothymol; L-(-)-Menthol; L-Menthol; Levomenthol; Levomentholum; Menthacamphor; Menthol; Menthomenthol; p-Menthan-3-ol; Peppermint camphor; U.S.p. Menthol

$$$$
