
  Mrv0541 02231219562D          

 12 13  0  0  1  0            999 V2000
   23.2407  -10.2602    0.0000 N   0  0  0  0  0  0  0  0  0  0  0  0
   20.3827  -10.2602    0.0000 N   0  0  0  0  0  0  0  0  0  0  0  0
   22.5262   -9.8476    0.0000 C   0  0  1  0  0  0  0  0  0  0  0  0
   23.9551   -9.8476    0.0000 C   0  0  0  0  0  0  0  0  0  0  0  0
   22.5262   -9.0226    0.0000 C   0  0  0  0  0  0  0  0  0  0  0  0
   23.9551   -9.0226    0.0000 C   0  0  0  0  0  0  0  0  0  0  0  0
   23.2407   -8.6101    0.0000 C   0  0  0  0  0  0  0  0  0  0  0  0
   21.8118  -10.2602    0.0000 C   0  0  0  0  0  0  0  0  0  0  0  0
   21.0972   -9.8476    0.0000 C   0  0  0  0  0  0  0  0  0  0  0  0
   20.3827  -11.0852    0.0000 C   0  0  0  0  0  0  0  0  0  0  0  0
   21.8118  -11.0852    0.0000 C   0  0  0  0  0  0  0  0  0  0  0  0
   21.0972  -11.4977    0.0000 C   0  0  0  0  0  0  0  0  0  0  0  0
  1  3  1  0  0  0  0
  1  4  1  0  0  0  0
  2  9  1  0  0  0  0
  2 10  2  0  0  0  0
  3  5  1  0  0  0  0
  3  8  1  6  0  0  0
  4  6  1  0  0  0  0
  5  7  1  0  0  0  0
  6  7  2  0  0  0  0
  8  9  2  0  0  0  0
  8 11  1  0  0  0  0
 10 12  1  0  0  0  0
 11 12  2  0  0  0  0
M  END
> <DATABASE_ID>
HMDB04476

> <DATABASE_NAME>
hmdb

> <SMILES>
C1N[C@@H](CC=C1)C1=CN=CC=C1

> <INCHI_IDENTIFIER>
InChI=1S/C10H12N2/c1-2-7-12-10(5-1)9-4-3-6-11-8-9/h1-4,6,8,10,12H,5,7H2/t10-/m0/s1

> <INCHI_KEY>
SOPPBXUYQGUQHE-JTQLQIEISA-N

> <FORMULA>
C10H12N2

> <MOLECULAR_WEIGHT>
160.2157

> <EXACT_MASS>
160.100048394

> <JCHEM_ACCEPTOR_COUNT>
2

> <JCHEM_AVERAGE_POLARIZABILITY>
17.554271510167556

> <JCHEM_BIOAVAILABILITY>
1

> <JCHEM_DONOR_COUNT>
1

> <JCHEM_FORMAL_CHARGE>
0

> <JCHEM_GHOSE_FILTER>
1

> <JCHEM_IUPAC>
3-[(2S)-1,2,3,6-tetrahydropyridin-2-yl]pyridine

> <ALOGPS_LOGP>
1.03

> <JCHEM_LOGP>
1.0180412236666667

> <ALOGPS_LOGS>
-1.18

> <JCHEM_MDDR_LIKE_RULE>
0

> <JCHEM_NUMBER_OF_RINGS>
2

> <JCHEM_PHYSIOLOGICAL_CHARGE>
1

> <JCHEM_PKA_STRONGEST_BASIC>
8.807939120931033

> <JCHEM_POLAR_SURFACE_AREA>
24.92

> <JCHEM_REFRACTIVITY>
49.9239

> <JCHEM_ROTATABLE_BOND_COUNT>
1

> <JCHEM_RULE_OF_FIVE>
1

> <ALOGPS_SOLUBILITY>
1.06e+01 g/l

> <JCHEM_TRADITIONAL_IUPAC>
anatabine

> <JCHEM_VEBER_RULE>
1

> <HMDB_ID>
HMDB04476

> <GENERIC_NAME>
Anatabine

> <SYNONYMS>
(-)-Anatabine

$$$$
