nerol
  Mrv1572001071617092D          

 11 10  0  0  0  0            999 V2000
    2.4750   -2.8579    0.0000 C   0  0  0  0  0  0  0  0  0  0  0  0
    2.0625   -2.1434    0.0000 C   0  0  0  0  0  0  0  0  0  0  0  0
    1.2375   -2.1434    0.0000 C   0  0  0  0  0  0  0  0  0  0  0  0
    2.4750   -1.4289    0.0000 C   0  0  0  0  0  0  0  0  0  0  0  0
    2.0625   -0.7145    0.0000 C   0  0  0  0  0  0  0  0  0  0  0  0
    1.2375   -0.7145    0.0000 C   0  0  0  0  0  0  0  0  0  0  0  0
    0.8250    0.0000    0.0000 C   0  0  0  0  0  0  0  0  0  0  0  0
    1.2375    0.7145    0.0000 C   0  0  0  0  0  0  0  0  0  0  0  0
    0.0000    0.0000    0.0000 C   0  0  0  0  0  0  0  0  0  0  0  0
   -0.4125   -0.7145    0.0000 C   0  0  0  0  0  0  0  0  0  0  0  0
    0.0000   -1.4289    0.0000 O   0  0  0  0  0  0  0  0  0  0  0  0
  1  2  1  0  0  0  0
  2  3  1  0  0  0  0
  2  4  2  0  0  0  0
  4  5  1  0  0  0  0
  5  6  1  0  0  0  0
  6  7  1  0  0  0  0
  7  8  1  0  0  0  0
  7  9  2  0  0  0  0
  9 10  1  0  0  0  0
 10 11  1  0  0  0  0
M  END
> <DATABASE_ID>
HMDB05812

> <DATABASE_NAME>
hmdb

> <SMILES>
CC(C)=CCC\C(C)=C/CO

> <INCHI_IDENTIFIER>
InChI=1S/C10H18O/c1-9(2)5-4-6-10(3)7-8-11/h5,7,11H,4,6,8H2,1-3H3/b10-7-

> <INCHI_KEY>
GLZPCOQZEFWAFX-YFHOEESVSA-N

> <FORMULA>
C10H18O

> <MOLECULAR_WEIGHT>
154.253

> <EXACT_MASS>
154.1357652

> <JCHEM_ACCEPTOR_COUNT>
1

> <JCHEM_ATOM_COUNT>
29

> <JCHEM_AVERAGE_POLARIZABILITY>
19.29002922323904

> <JCHEM_BIOAVAILABILITY>
1

> <JCHEM_DONOR_COUNT>
1

> <JCHEM_FORMAL_CHARGE>
0

> <JCHEM_GHOSE_FILTER>
0

> <JCHEM_IUPAC>
(2Z)-3,7-dimethylocta-2,6-dien-1-ol

> <ALOGPS_LOGP>
2.89

> <JCHEM_LOGP>
2.5023832959999996

> <ALOGPS_LOGS>
-2.05

> <JCHEM_MDDR_LIKE_RULE>
0

> <JCHEM_NUMBER_OF_RINGS>
0

> <JCHEM_PHYSIOLOGICAL_CHARGE>
0

> <JCHEM_PKA_STRONGEST_ACIDIC>
16.330024218725743

> <JCHEM_PKA_STRONGEST_BASIC>
-2.2170474067293595

> <JCHEM_POLAR_SURFACE_AREA>
20.23

> <JCHEM_REFRACTIVITY>
51.1821

> <JCHEM_ROTATABLE_BOND_COUNT>
4

> <JCHEM_RULE_OF_FIVE>
1

> <ALOGPS_SOLUBILITY>
1.37e+00 g/l

> <JCHEM_TRADITIONAL_IUPAC>
nerol

> <JCHEM_VEBER_RULE>
1

> <HMDB_ID>
HMDB05812

> <GENERIC_NAME>
Geraniol

> <SYNONYMS>
(2E)3,7-dimethyl-2,6-Octadien-1-ol; (2Z)3,7-dimethyl-2,6-Octadien-1-ol; (cis)3,7-dimethyl-2,6-Octadien-1-ol; (E)3,7-dimethyl-2,6-Octadien-1-ol; (E)3,7-Dimethyl-Octadien-1-ol; (z)-geraniol; (Z)3,7-dimethyl-2,6-Octadien-1-ol; 2,6-Dimethyl-trans-2,6-octadien-8-ol; 2-trans-3,7-Dimethyl-2,6-octadien-1-ol; 2-trans-3,7-Dimethyl-2,6-octadiene-1-ol; 2E-Geraniol; 3,7-Dimethyl-2,6-Octadien-1-ol; 3,7-Dimethyl-Octane-1-ol tetrahydro derivative; 3,7-Dimethyl-trans-2, 6-octadien-1-ol; 3,7-Dimethylocta-2,6-dien-1-ol; beta-Geraniol; cis-3,7-Dimethyl-2,6-octadien-1-ol; Cis-geraniol; Geraniol (natural); Geraniol alcohol; Geranyl alcohol; Guaniol; Lemonol; Nerol; Nerol (natural); Nerolidyl diphosphate; Neryl alcohol; trans-3,7-Dimethyl-2,6-octadien-1-ol; Trans-geraniol; Vernol

$$$$
