
  Mrv0541 02231217552D          

 20 19  0  0  0  0            999 V2000
    0.6632    6.9829    0.0000 C   0  0  0  0  0  0  0  0  0  0  0  0
    1.3776    6.5704    0.0000 C   0  0  0  0  0  0  0  0  0  0  0  0
    1.3776    5.7454    0.0000 C   0  0  0  0  0  0  0  0  0  0  0  0
    2.0921    5.3329    0.0000 C   0  0  0  0  0  0  0  0  0  0  0  0
    2.0921    4.5079    0.0000 C   0  0  0  0  0  0  0  0  0  0  0  0
    2.8066    4.0954    0.0000 C   0  0  0  0  0  0  0  0  0  0  0  0
    2.8066    3.2704    0.0000 C   0  0  0  0  0  0  0  0  0  0  0  0
    3.5211    2.8579    0.0000 C   0  0  0  0  0  0  0  0  0  0  0  0
    4.2355    3.2704    0.0000 C   0  0  0  0  0  0  0  0  0  0  0  0
    4.9500    2.8579    0.0000 C   0  0  0  0  0  0  0  0  0  0  0  0
    5.6645    3.2704    0.0000 C   0  0  0  0  0  0  0  0  0  0  0  0
    6.3789    2.8579    0.0000 C   0  0  0  0  0  0  0  0  0  0  0  0
    7.0934    3.2704    0.0000 C   0  0  0  0  0  0  0  0  0  0  0  0
    7.8079    2.8579    0.0000 C   0  0  0  0  0  0  0  0  0  0  0  0
    8.5224    3.2704    0.0000 C   0  0  0  0  0  0  0  0  0  0  0  0
    9.2368    2.8579    0.0000 C   0  0  0  0  0  0  0  0  0  0  0  0
    9.9513    3.2704    0.0000 C   0  0  0  0  0  0  0  0  0  0  0  0
   10.6658    2.8579    0.0000 C   0  0  0  0  0  0  0  0  0  0  0  0
   11.3802    3.2704    0.0000 O   0  0  0  0  0  0  0  0  0  0  0  0
   10.6658    2.0329    0.0000 O   0  0  0  0  0  0  0  0  0  0  0  0
  1  2  1  0  0  0  0
  2  3  1  0  0  0  0
  3  4  1  0  0  0  0
  4  5  1  0  0  0  0
  5  6  1  0  0  0  0
  6  7  1  0  0  0  0
  7  8  2  0  0  0  0
  8  9  1  0  0  0  0
  9 10  1  0  0  0  0
 10 11  1  0  0  0  0
 11 12  1  0  0  0  0
 12 13  1  0  0  0  0
 13 14  1  0  0  0  0
 14 15  1  0  0  0  0
 15 16  1  0  0  0  0
 16 17  1  0  0  0  0
 17 18  1  0  0  0  0
 18 19  1  0  0  0  0
 18 20  2  0  0  0  0
M  END
> <DATABASE_ID>
HMDB03231

> <DATABASE_NAME>
hmdb

> <SMILES>
CCCCCC\C=C/CCCCCCCCCC(O)=O

> <INCHI_IDENTIFIER>
InChI=1S/C18H34O2/c1-2-3-4-5-6-7-8-9-10-11-12-13-14-15-16-17-18(19)20/h7-8H,2-6,9-17H2,1H3,(H,19,20)/b8-7-

> <INCHI_KEY>
UWHZIFQPPBDJPM-FPLPWBNLSA-N

> <FORMULA>
C18H34O2

> <MOLECULAR_WEIGHT>
282.4614

> <EXACT_MASS>
282.255880332

> <JCHEM_ACCEPTOR_COUNT>
2

> <JCHEM_AVERAGE_POLARIZABILITY>
37.09733266608618

> <JCHEM_BIOAVAILABILITY>
0

> <JCHEM_DONOR_COUNT>
1

> <JCHEM_FORMAL_CHARGE>
0

> <JCHEM_GHOSE_FILTER>
0

> <JCHEM_IUPAC>
(11Z)-octadec-11-enoic acid

> <ALOGPS_LOGP>
7.67

> <JCHEM_LOGP>
6.783798451000001

> <ALOGPS_LOGS>
-6.36

> <JCHEM_MDDR_LIKE_RULE>
0

> <JCHEM_NUMBER_OF_RINGS>
0

> <JCHEM_PHYSIOLOGICAL_CHARGE>
-1

> <JCHEM_PKA_STRONGEST_ACIDIC>
4.952019655228562

> <JCHEM_POLAR_SURFACE_AREA>
37.3

> <JCHEM_REFRACTIVITY>
87.40219999999998

> <JCHEM_ROTATABLE_BOND_COUNT>
15

> <JCHEM_RULE_OF_FIVE>
0

> <ALOGPS_SOLUBILITY>
1.23e-04 g/l

> <JCHEM_TRADITIONAL_IUPAC>
cis-vaccenic acid

> <JCHEM_VEBER_RULE>
0

> <HMDB_ID>
HMDB03231

> <GENERIC_NAME>
Vaccenic acid

> <SYNONYMS>
(11Z)-Octadecenoate; (11Z)-Octadecenoic acid; (Z)-Octadec-11-enoate; (Z)-Octadec-11-enoic acid; 11-Octadecenoate; 11-Octadecenoic acid; 11Z-Octadecenoate; 11Z-Octadecenoic acid; trans-11-Octadecenoate; trans-11-Octadecenoic acid; Vaccenate

$$$$
