
  Mrv0541 02231217302D          

  8  7  0  0  1  0            999 V2000
    1.9520    1.9520    0.0000 N   0  0  0  0  0  0  0  0  0  0  0  0
    1.9520    1.1270    0.0000 C   0  0  1  0  0  0  0  0  0  0  0  0
    1.2375    0.7145    0.0000 C   0  0  0  0  0  0  0  0  0  0  0  0
    0.5230    1.1270    0.0000 C   0  0  0  0  0  0  0  0  0  0  0  0
   -0.1914    0.7145    0.0000 O   0  0  0  0  0  0  0  0  0  0  0  0
    2.6664    0.7145    0.0000 C   0  0  0  0  0  0  0  0  0  0  0  0
    3.3809    1.1270    0.0000 O   0  0  0  0  0  0  0  0  0  0  0  0
    2.6664   -0.1105    0.0000 O   0  0  0  0  0  0  0  0  0  0  0  0
  2  1  1  6  0  0  0
  2  3  1  0  0  0  0
  3  4  1  0  0  0  0
  4  5  1  0  0  0  0
  2  6  1  0  0  0  0
  6  7  1  0  0  0  0
  6  8  2  0  0  0  0
M  END
> <DATABASE_ID>
HMDB00719

> <DATABASE_NAME>
hmdb

> <SMILES>
N[C@@H](CCO)C(O)=O

> <INCHI_IDENTIFIER>
InChI=1S/C4H9NO3/c5-3(1-2-6)4(7)8/h3,6H,1-2,5H2,(H,7,8)/t3-/m0/s1

> <INCHI_KEY>
UKAUYVFTDYCKQA-VKHMYHEASA-N

> <FORMULA>
C4H9NO3

> <MOLECULAR_WEIGHT>
119.1192

> <EXACT_MASS>
119.058243159

> <JCHEM_ACCEPTOR_COUNT>
4

> <JCHEM_AVERAGE_POLARIZABILITY>
11.439148714602197

> <JCHEM_BIOAVAILABILITY>
1

> <JCHEM_DONOR_COUNT>
3

> <JCHEM_FORMAL_CHARGE>
0

> <JCHEM_GHOSE_FILTER>
0

> <JCHEM_IUPAC>
(2S)-2-amino-4-hydroxybutanoic acid

> <ALOGPS_LOGP>
-3.31

> <JCHEM_LOGP>
-3.8277325124850385

> <ALOGPS_LOGS>
0.55

> <JCHEM_MDDR_LIKE_RULE>
0

> <JCHEM_NUMBER_OF_RINGS>
0

> <JCHEM_PHYSIOLOGICAL_CHARGE>
0

> <JCHEM_PKA>
15.933083327320805

> <JCHEM_PKA_STRONGEST_ACIDIC>
2.223319649729163

> <JCHEM_PKA_STRONGEST_BASIC>
9.159110100742131

> <JCHEM_POLAR_SURFACE_AREA>
83.55000000000001

> <JCHEM_REFRACTIVITY>
26.906399999999998

> <JCHEM_ROTATABLE_BOND_COUNT>
3

> <JCHEM_RULE_OF_FIVE>
1

> <ALOGPS_SOLUBILITY>
4.23e+02 g/l

> <JCHEM_TRADITIONAL_IUPAC>
L-homoserine

> <JCHEM_VEBER_RULE>
0

> <HMDB_ID>
HMDB00719

> <GENERIC_NAME>
L-Homoserine

> <SYNONYMS>
(S)-2-amino-4-hydroxy-Butanoate; (S)-2-amino-4-hydroxy-Butanoic acid; (S)-2-Amino-4-hydroxybutanoate; (S)-2-Amino-4-hydroxybutanoic acid; (S)-Homoserine; 2-Amino-4-hydroxy-Butyrate; 2-Amino-4-hydroxy-Butyric acid; 2-Amino-4-hydroxy-L-Butyrate; 2-Amino-4-hydroxy-L-Butyric acid; 2-Amino-4-hydroxybutanoate; 2-Amino-4-hydroxybutanoic acid; 2-Amino-4-hydroxybutyrate; 2-Amino-4-hydroxybutyric acid; Homoserine; L-Homoserine

$$$$
