
  Mrv0541 02231219292D          

 23 22  0  0  0  0            999 V2000
   18.5597  -12.5704    0.0000 O   0  0  0  0  0  0  0  0  0  0  0  0
   19.2742  -13.8080    0.0000 O   0  0  0  0  0  0  0  0  0  0  0  0
   26.4191  -12.9829    0.0000 C   0  0  0  0  0  0  0  0  0  0  0  0
   27.1335  -12.5704    0.0000 C   0  0  0  0  0  0  0  0  0  0  0  0
   25.7046  -12.5704    0.0000 C   0  0  0  0  0  0  0  0  0  0  0  0
   27.8481  -12.9829    0.0000 C   0  0  0  0  0  0  0  0  0  0  0  0
   24.9901  -12.9829    0.0000 C   0  0  0  0  0  0  0  0  0  0  0  0
   28.5625  -12.5704    0.0000 C   0  0  0  0  0  0  0  0  0  0  0  0
   24.2756  -12.5704    0.0000 C   0  0  0  0  0  0  0  0  0  0  0  0
   29.2770  -12.9829    0.0000 C   0  0  0  0  0  0  0  0  0  0  0  0
   23.5611  -12.9829    0.0000 C   0  0  0  0  0  0  0  0  0  0  0  0
   29.9915  -12.5704    0.0000 C   0  0  0  0  0  0  0  0  0  0  0  0
   22.8466  -12.5704    0.0000 C   0  0  0  0  0  0  0  0  0  0  0  0
   30.7060  -12.9829    0.0000 C   0  0  0  0  0  0  0  0  0  0  0  0
   22.1322  -12.9829    0.0000 C   0  0  0  0  0  0  0  0  0  0  0  0
   31.4205  -12.5704    0.0000 C   0  0  0  0  0  0  0  0  0  0  0  0
   21.4176  -12.5704    0.0000 C   0  0  0  0  0  0  0  0  0  0  0  0
   32.1349  -12.9829    0.0000 C   0  0  0  0  0  0  0  0  0  0  0  0
   20.7032  -12.9829    0.0000 C   0  0  0  0  0  0  0  0  0  0  0  0
   32.8494  -12.5704    0.0000 C   0  0  0  0  0  0  0  0  0  0  0  0
   19.9887  -12.5704    0.0000 C   0  0  0  0  0  0  0  0  0  0  0  0
   33.5640  -12.9829    0.0000 C   0  0  0  0  0  0  0  0  0  0  0  0
   19.2742  -12.9829    0.0000 C   0  0  0  0  0  0  0  0  0  0  0  0
  1 23  1  0  0  0  0
  2 23  2  0  0  0  0
  3  4  1  0  0  0  0
  3  5  1  0  0  0  0
  4  6  1  0  0  0  0
  5  7  1  0  0  0  0
  6  8  1  0  0  0  0
  7  9  1  0  0  0  0
  8 10  1  0  0  0  0
  9 11  1  0  0  0  0
 10 12  1  0  0  0  0
 11 13  1  0  0  0  0
 12 14  1  0  0  0  0
 13 15  1  0  0  0  0
 14 16  1  0  0  0  0
 15 17  1  0  0  0  0
 16 18  1  0  0  0  0
 17 19  1  0  0  0  0
 18 20  1  0  0  0  0
 19 21  1  0  0  0  0
 20 22  1  0  0  0  0
 21 23  1  0  0  0  0
M  END
> <DATABASE_ID>
HMDB02345

> <DATABASE_NAME>
hmdb

> <SMILES>
CCCCCCCCCCCCCCCCCCCCC(O)=O

> <INCHI_IDENTIFIER>
InChI=1S/C21H42O2/c1-2-3-4-5-6-7-8-9-10-11-12-13-14-15-16-17-18-19-20-21(22)23/h2-20H2,1H3,(H,22,23)

> <INCHI_KEY>
CKDDRHZIAZRDBW-UHFFFAOYSA-N

> <FORMULA>
C21H42O2

> <MOLECULAR_WEIGHT>
326.557

> <EXACT_MASS>
326.318480588

> <JCHEM_ACCEPTOR_COUNT>
2

> <JCHEM_AVERAGE_POLARIZABILITY>
45.09284100442177

> <JCHEM_BIOAVAILABILITY>
0

> <JCHEM_DONOR_COUNT>
1

> <JCHEM_FORMAL_CHARGE>
0

> <JCHEM_GHOSE_FILTER>
0

> <JCHEM_IUPAC>
henicosanoic acid

> <ALOGPS_LOGP>
8.97

> <JCHEM_LOGP>
8.479426102666666

> <ALOGPS_LOGS>
-6.92

> <JCHEM_MDDR_LIKE_RULE>
0

> <JCHEM_NUMBER_OF_RINGS>
0

> <JCHEM_PHYSIOLOGICAL_CHARGE>
-1

> <JCHEM_PKA_STRONGEST_ACIDIC>
4.952019655228562

> <JCHEM_POLAR_SURFACE_AREA>
37.3

> <JCHEM_REFRACTIVITY>
100.08859999999999

> <JCHEM_ROTATABLE_BOND_COUNT>
19

> <JCHEM_RULE_OF_FIVE>
0

> <ALOGPS_SOLUBILITY>
3.97e-05 g/l

> <JCHEM_TRADITIONAL_IUPAC>
heneicosanoic acid

> <JCHEM_VEBER_RULE>
0

> <HMDB_ID>
HMDB02345

> <GENERIC_NAME>
Heneicosanoic acid

> <SYNONYMS>
Heneicosanate; Heneicosanic acid; Heneicosanoate; Heneicosanoic acid; Henicosanoate; Henicosanoic acid; N-Heneicosanoate; N-Heneicosanoic acid

$$$$
