
  Mrv0541 02231218492D          

  6  6  0  0  0  0            999 V2000
   -0.0037   -0.8288    0.0000 C   0  0  0  0  0  0  0  0  0  0  0  0
   -0.7087   -0.4125    0.0000 C   0  0  0  0  0  0  0  0  0  0  0  0
    0.7125   -0.4125    0.0000 C   0  0  0  0  0  0  0  0  0  0  0  0
   -0.7087    0.4125    0.0000 C   0  0  0  0  0  0  0  0  0  0  0  0
    0.7125    0.4125    0.0000 C   0  0  0  0  0  0  0  0  0  0  0  0
   -0.0037    0.8213    0.0000 N   0  0  0  0  0  0  0  0  0  0  0  0
  1  2  2  0  0  0  0
  1  3  1  0  0  0  0
  2  4  1  0  0  0  0
  3  5  2  0  0  0  0
  4  6  2  0  0  0  0
  5  6  1  0  0  0  0
M  END
> <DATABASE_ID>
HMDB00926

> <DATABASE_NAME>
hmdb

> <SMILES>
C1=CC=NC=C1

> <INCHI_IDENTIFIER>
InChI=1S/C5H5N/c1-2-4-6-5-3-1/h1-5H

> <INCHI_KEY>
JUJWROOIHBZHMG-UHFFFAOYSA-N

> <FORMULA>
C5H5N

> <MOLECULAR_WEIGHT>
79.0999

> <EXACT_MASS>
79.042199165

> <JCHEM_ACCEPTOR_COUNT>
1

> <JCHEM_AVERAGE_POLARIZABILITY>
8.249444777134816

> <JCHEM_BIOAVAILABILITY>
1

> <JCHEM_DONOR_COUNT>
0

> <JCHEM_FORMAL_CHARGE>
0

> <JCHEM_GHOSE_FILTER>
0

> <JCHEM_IUPAC>
pyridine

> <ALOGPS_LOGP>
0.70

> <JCHEM_LOGP>
0.7555733889999999

> <ALOGPS_LOGS>
0.49

> <JCHEM_MDDR_LIKE_RULE>
0

> <JCHEM_NUMBER_OF_RINGS>
1

> <JCHEM_PHYSIOLOGICAL_CHARGE>
0

> <JCHEM_PKA_STRONGEST_BASIC>
5.118161478418525

> <JCHEM_POLAR_SURFACE_AREA>
12.89

> <JCHEM_REFRACTIVITY>
23.901099999999996

> <JCHEM_ROTATABLE_BOND_COUNT>
0

> <JCHEM_RULE_OF_FIVE>
1

> <ALOGPS_SOLUBILITY>
2.42e+02 g/l

> <JCHEM_TRADITIONAL_IUPAC>
pyridine

> <JCHEM_VEBER_RULE>
1

> <HMDB_ID>
HMDB00926

> <GENERIC_NAME>
Pyridine

> <SYNONYMS>
Azabenzene; Azine; Piridina; Pirydyna; Pyridin; Tritisan

$$$$
