
  Mrv0541 02231219462D          

  9  8  0  0  1  0            999 V2000
   19.2888  -15.3554    0.0000 O   0  0  0  0  0  0  0  0  0  0  0  0
   18.5744  -16.5929    0.0000 O   0  0  0  0  0  0  0  0  0  0  0  0
   17.1455  -16.5929    0.0000 N   0  0  0  0  0  0  0  0  0  0  0  0
   17.1455  -15.7679    0.0000 C   0  0  2  0  0  0  0  0  0  0  0  0
   16.4309  -15.3554    0.0000 C   0  0  0  0  0  0  0  0  0  0  0  0
   17.8599  -15.3554    0.0000 C   0  0  0  0  0  0  0  0  0  0  0  0
   15.7164  -15.7679    0.0000 C   0  0  0  0  0  0  0  0  0  0  0  0
   16.4309  -14.5303    0.0000 C   0  0  0  0  0  0  0  0  0  0  0  0
   18.5744  -15.7679    0.0000 C   0  0  0  0  0  0  0  0  0  0  0  0
  1  9  1  0  0  0  0
  2  9  2  0  0  0  0
  4  3  1  6  0  0  0
  4  5  1  0  0  0  0
  4  6  1  0  0  0  0
  5  7  1  0  0  0  0
  5  8  1  0  0  0  0
  6  9  1  0  0  0  0
M  END
> <DATABASE_ID>
HMDB03640

> <DATABASE_NAME>
hmdb

> <SMILES>
CC(C)[C@@H](N)CC(O)=O

> <INCHI_IDENTIFIER>
InChI=1S/C6H13NO2/c1-4(2)5(7)3-6(8)9/h4-5H,3,7H2,1-2H3,(H,8,9)/t5-/m0/s1

> <INCHI_KEY>
GLUJNGJDHCTUJY-YFKPBYRVSA-N

> <FORMULA>
C6H13NO2

> <MOLECULAR_WEIGHT>
131.1729

> <EXACT_MASS>
131.094628665

> <JCHEM_ACCEPTOR_COUNT>
3

> <JCHEM_AVERAGE_POLARIZABILITY>
14.065636196281051

> <JCHEM_BIOAVAILABILITY>
1

> <JCHEM_DONOR_COUNT>
2

> <JCHEM_FORMAL_CHARGE>
0

> <JCHEM_GHOSE_FILTER>
0

> <JCHEM_IUPAC>
(3S)-3-amino-4-methylpentanoic acid

> <ALOGPS_LOGP>
-2.14

> <JCHEM_LOGP>
-1.8698627027982233

> <ALOGPS_LOGS>
-0.02

> <JCHEM_MDDR_LIKE_RULE>
0

> <JCHEM_NUMBER_OF_RINGS>
0

> <JCHEM_PHYSIOLOGICAL_CHARGE>
0

> <JCHEM_PKA_STRONGEST_ACIDIC>
4.389495820581845

> <JCHEM_PKA_STRONGEST_BASIC>
10.599975271720838

> <JCHEM_POLAR_SURFACE_AREA>
63.31999999999999

> <JCHEM_REFRACTIVITY>
34.117200000000004

> <JCHEM_ROTATABLE_BOND_COUNT>
3

> <JCHEM_RULE_OF_FIVE>
1

> <ALOGPS_SOLUBILITY>
1.26e+02 g/l

> <JCHEM_TRADITIONAL_IUPAC>
Î²-leucine

> <JCHEM_VEBER_RULE>
0

> <HMDB_ID>
HMDB03640

> <GENERIC_NAME>
Beta-Leucine

> <SYNONYMS>
beta-2-Amino-4-methylvaleric acid; beta-Leucine; L-beta-Leucine

$$$$
