
  Mrv0541 02231218432D          

 12 12  0  0  0  0            999 V2000
   25.2225  -14.2599    0.0000 O   0  0  0  0  0  0  0  0  0  0  0  0
   24.5080  -17.1474    0.0000 O   0  0  0  0  0  0  0  0  0  0  0  0
   26.6515  -13.4349    0.0000 O   0  0  0  0  0  0  0  0  0  0  0  0
   27.3659  -14.6724    0.0000 O   0  0  0  0  0  0  0  0  0  0  0  0
   25.9370  -15.4974    0.0000 C   0  0  0  0  0  0  0  0  0  0  0  0
   25.9370  -14.6724    0.0000 C   0  0  0  0  0  0  0  0  0  0  0  0
   25.2225  -15.9099    0.0000 C   0  0  0  0  0  0  0  0  0  0  0  0
   26.6515  -15.9099    0.0000 C   0  0  0  0  0  0  0  0  0  0  0  0
   25.2225  -16.7349    0.0000 C   0  0  0  0  0  0  0  0  0  0  0  0
   26.6515  -16.7349    0.0000 C   0  0  0  0  0  0  0  0  0  0  0  0
   25.9370  -17.1474    0.0000 C   0  0  0  0  0  0  0  0  0  0  0  0
   26.6515  -14.2599    0.0000 C   0  0  0  0  0  0  0  0  0  0  0  0
  1  6  1  0  0  0  0
  2  9  1  0  0  0  0
  3 12  1  0  0  0  0
  4 12  2  0  0  0  0
  5  6  1  0  0  0  0
  5  7  2  0  0  0  0
  5  8  1  0  0  0  0
  6 12  1  0  0  0  0
  7  9  1  0  0  0  0
  8 10  2  0  0  0  0
  9 11  2  0  0  0  0
 10 11  1  0  0  0  0
M  END
> <DATABASE_ID>
HMDB00750

> <DATABASE_NAME>
hmdb

> <SMILES>
OC(C(O)=O)C1=CC(O)=CC=C1

> <INCHI_IDENTIFIER>
InChI=1S/C8H8O4/c9-6-3-1-2-5(4-6)7(10)8(11)12/h1-4,7,9-10H,(H,11,12)

> <INCHI_KEY>
OLSDAJRAVOVKLG-UHFFFAOYSA-N

> <FORMULA>
C8H8O4

> <MOLECULAR_WEIGHT>
168.1467

> <EXACT_MASS>
168.042258744

> <JCHEM_ACCEPTOR_COUNT>
4

> <JCHEM_AVERAGE_POLARIZABILITY>
15.54989891468756

> <JCHEM_BIOAVAILABILITY>
1

> <JCHEM_DONOR_COUNT>
3

> <JCHEM_FORMAL_CHARGE>
0

> <JCHEM_GHOSE_FILTER>
1

> <JCHEM_IUPAC>
2-hydroxy-2-(3-hydroxyphenyl)acetic acid

> <ALOGPS_LOGP>
0.89

> <JCHEM_LOGP>
0.5922703229999999

> <ALOGPS_LOGS>
-1.20

> <JCHEM_MDDR_LIKE_RULE>
0

> <JCHEM_NUMBER_OF_RINGS>
1

> <JCHEM_PHYSIOLOGICAL_CHARGE>
-1

> <JCHEM_PKA>
9.370825435875659

> <JCHEM_PKA_STRONGEST_ACIDIC>
3.303530000093164

> <JCHEM_PKA_STRONGEST_BASIC>
-4.132531240571596

> <JCHEM_POLAR_SURFACE_AREA>
77.75999999999999

> <JCHEM_REFRACTIVITY>
40.6847

> <JCHEM_ROTATABLE_BOND_COUNT>
2

> <JCHEM_RULE_OF_FIVE>
1

> <ALOGPS_SOLUBILITY>
1.05e+01 g/l

> <JCHEM_TRADITIONAL_IUPAC>
MHMA

> <JCHEM_VEBER_RULE>
0

> <HMDB_ID>
HMDB00750

> <GENERIC_NAME>
3-Hydroxymandelic acid

> <SYNONYMS>
3-Hydroxymandelate; 3-Hydroxyphenylglycolic acid; alpha,3-Dihydroxybenzeneacetic acid; DL-3-Hydroxymandelate; DL-3-Hydroxymandelic acid; DL-hydroxy(m-hydroxyphenyl)acetic acid; Hydroxy(3-hydroxyphenyl)acetic acid; m-Hydroxy-(6CI,7CI,8CI)Mandelate; m-Hydroxy-(6CI,7CI,8CI)Mandelic acid; M-Hydroxymandelate; M-Hydroxymandelic acid; Meta-hydroxymandelic acid; MHMA

$$$$
