
  Mrv0541 02231219392D          

 27 28  0  0  1  0            999 V2000
   20.4033  -16.6311    0.0000 S   0  0  0  0  0  0  0  0  0  0  0  0
   26.5597   -9.4569    0.0000 O   0  0  0  0  0  0  0  0  0  0  0  0
   26.8544  -10.8552    0.0000 O   0  0  0  0  0  0  0  0  0  0  0  0
   21.7543  -12.6602    0.0000 O   0  0  0  0  0  0  0  0  0  0  0  0
   17.0465  -16.6311    0.0000 O   0  0  0  0  0  0  0  0  0  0  0  0
   23.1126  -13.1041    0.0000 N   0  0  0  0  0  0  0  0  0  0  0  0
   24.9451   -9.7972    0.0000 N   0  0  0  0  0  0  0  0  0  0  0  0
   18.3564  -15.9636    0.0000 N   0  0  0  0  0  0  0  0  0  0  0  0
   18.3564  -17.2986    0.0000 N   0  0  0  0  0  0  0  0  0  0  0  0
   25.4961  -10.4112    0.0000 C   0  0  1  0  0  0  0  0  0  0  0  0
   23.3688  -12.3199    0.0000 C   0  0  0  0  0  0  0  0  0  0  0  0
   25.2398  -11.1954    0.0000 C   0  0  0  0  0  0  0  0  0  0  0  0
   24.1761  -12.1498    0.0000 C   0  0  0  0  0  0  0  0  0  0  0  0
   24.4325  -11.3655    0.0000 C   0  0  0  0  0  0  0  0  0  0  0  0
   20.9853  -15.0128    0.0000 C   0  0  0  0  0  0  0  0  0  0  0  0
   21.2417  -14.2287    0.0000 C   0  0  0  0  0  0  0  0  0  0  0  0
   20.1780  -15.1830    0.0000 C   0  0  0  0  0  0  0  0  0  0  0  0
   22.0490  -14.0584    0.0000 C   0  0  0  0  0  0  0  0  0  0  0  0
   19.9218  -15.9672    0.0000 C   0  0  1  0  0  0  0  0  0  0  0  0
   19.1411  -16.2186    0.0000 C   0  0  2  0  0  0  0  0  0  0  0  0
   19.1411  -17.0436    0.0000 C   0  0  2  0  0  0  0  0  0  0  0  0
   19.9218  -17.2950    0.0000 C   0  0  0  0  0  0  0  0  0  0  0  0
   26.3034  -10.2411    0.0000 C   0  0  0  0  0  0  0  0  0  0  0  0
   22.3053  -13.2743    0.0000 C   0  0  0  0  0  0  0  0  0  0  0  0
   17.8715  -16.6311    0.0000 C   0  0  0  0  0  0  0  0  0  0  0  0
   19.1420  -15.5586    0.0000 H   0  0  0  0  0  0  0  0  0  0  0  0
   19.1420  -17.7036    0.0000 H   0  0  0  0  0  0  0  0  0  0  0  0
  1 19  1  0  0  0  0
  1 22  1  0  0  0  0
  2 23  1  0  0  0  0
  3 23  2  0  0  0  0
  4 24  2  0  0  0  0
  5 25  2  0  0  0  0
  6 11  1  0  0  0  0
  6 24  1  0  0  0  0
 10  7  1  6  0  0  0
  8 20  1  0  0  0  0
  8 25  1  0  0  0  0
  9 21  1  0  0  0  0
  9 25  1  0  0  0  0
 10 12  1  0  0  0  0
 10 23  1  0  0  0  0
 11 13  1  0  0  0  0
 12 14  1  0  0  0  0
 13 14  1  0  0  0  0
 15 16  1  0  0  0  0
 15 17  1  0  0  0  0
 16 18  1  0  0  0  0
 19 17  1  6  0  0  0
 18 24  1  0  0  0  0
 19 20  1  0  0  0  0
 20 21  1  0  0  0  0
 20 26  1  1  0  0  0
 21 22  1  0  0  0  0
 21 27  1  1  0  0  0
M  END
> <DATABASE_ID>
HMDB03134

> <DATABASE_NAME>
hmdb

> <SMILES>
[H][C@]12CS[C@@H](CCCCC(=O)NCCCC[C@H](N)C(O)=O)[C@@]1([H])NC(=O)N2

> <INCHI_IDENTIFIER>
InChI=1S/C16H28N4O4S/c17-10(15(22)23)5-3-4-8-18-13(21)7-2-1-6-12-14-11(9-25-12)19-16(24)20-14/h10-12,14H,1-9,17H2,(H,18,21)(H,22,23)(H2,19,20,24)/t10-,11-,12-,14-/m0/s1

> <INCHI_KEY>
BAQMYDQNMFBZNA-MNXVOIDGSA-N

> <FORMULA>
C16H28N4O4S

> <MOLECULAR_WEIGHT>
372.483

> <EXACT_MASS>
372.183126094

> <JCHEM_ACCEPTOR_COUNT>
5

> <JCHEM_AVERAGE_POLARIZABILITY>
40.192808711048066

> <JCHEM_BIOAVAILABILITY>
1

> <JCHEM_DONOR_COUNT>
5

> <JCHEM_FORMAL_CHARGE>
0

> <JCHEM_GHOSE_FILTER>
0

> <JCHEM_IUPAC>
(2S)-6-{5-[(3aS,4S,6aR)-2-oxo-hexahydro-1H-thieno[3,4-d]imidazolidin-4-yl]pentanamido}-2-aminohexanoic acid

> <ALOGPS_LOGP>
-0.69

> <JCHEM_LOGP>
-2.6113811053921547

> <ALOGPS_LOGS>
-3.33

> <JCHEM_MDDR_LIKE_RULE>
0

> <JCHEM_NUMBER_OF_RINGS>
2

> <JCHEM_PHYSIOLOGICAL_CHARGE>
0

> <JCHEM_PKA>
13.492614246310097

> <JCHEM_PKA_STRONGEST_ACIDIC>
2.244756112007351

> <JCHEM_PKA_STRONGEST_BASIC>
9.526483526343231

> <JCHEM_POLAR_SURFACE_AREA>
133.54999999999998

> <JCHEM_REFRACTIVITY>
94.6605

> <JCHEM_ROTATABLE_BOND_COUNT>
11

> <JCHEM_RULE_OF_FIVE>
1

> <ALOGPS_SOLUBILITY>
1.73e-01 g/l

> <JCHEM_TRADITIONAL_IUPAC>
biocytin

> <JCHEM_VEBER_RULE>
0

> <HMDB_ID>
HMDB03134

> <GENERIC_NAME>
Biocytin

> <SYNONYMS>
Biotinyl-L-lysine; epsilon-N-Biotinyl-L-lysine; H-Lys(biotinyl)-OH; N-epsilon-Biotin-L-lysine; N6-D-Biotinyl-L-lysine; N6-delta-Biotinyl-L-lysine; Ne-Biotynyl-L-lysine

$$$$
