
  Mrv0541 02231220302D          

 21 23  0  0  0  0            999 V2000
   14.9536  -10.8626    0.0000 C   0  0  0  0  0  0  0  0  0  0  0  0
   14.2392  -11.2750    0.0000 C   0  0  0  0  0  0  0  0  0  0  0  0
   13.5247  -10.8626    0.0000 C   0  0  0  0  0  0  0  0  0  0  0  0
   13.5247  -10.0376    0.0000 C   0  0  0  0  0  0  0  0  0  0  0  0
   14.2392   -9.6250    0.0000 C   0  0  0  0  0  0  0  0  0  0  0  0
   14.9536  -10.0376    0.0000 C   0  0  0  0  0  0  0  0  0  0  0  0
   15.6682   -9.6250    0.0000 O   0  0  0  0  0  0  0  0  0  0  0  0
   15.6682   -8.8000    0.0000 C   0  0  0  0  0  0  0  0  0  0  0  0
   14.9536   -8.3876    0.0000 C   0  0  0  0  0  0  0  0  0  0  0  0
   14.2392   -8.8000    0.0000 C   0  0  0  0  0  0  0  0  0  0  0  0
   16.3826   -8.3876    0.0000 C   0  0  0  0  0  0  0  0  0  0  0  0
   16.3826   -7.5626    0.0000 C   0  0  0  0  0  0  0  0  0  0  0  0
   17.0970   -8.8000    0.0000 C   0  0  0  0  0  0  0  0  0  0  0  0
   17.0970   -7.1500    0.0000 C   0  0  0  0  0  0  0  0  0  0  0  0
   17.8115   -7.5626    0.0000 C   0  0  0  0  0  0  0  0  0  0  0  0
   17.8115   -8.3876    0.0000 C   0  0  0  0  0  0  0  0  0  0  0  0
   12.8103   -9.6250    0.0000 O   0  0  0  0  0  0  0  0  0  0  0  0
   14.2392  -12.1000    0.0000 O   0  0  0  0  0  0  0  0  0  0  0  0
   13.5247   -8.3876    0.0000 O   0  0  0  0  0  0  0  0  0  0  0  0
   18.5260   -8.8000    0.0000 O   0  0  0  0  0  0  0  0  0  0  0  0
   18.5260   -7.1500    0.0000 O   0  0  0  0  0  0  0  0  0  0  0  0
  2  1  2  0  0  0  0
  3  2  1  0  0  0  0
  4  3  2  0  0  0  0
  5  4  1  0  0  0  0
  6  5  2  0  0  0  0
  6  1  1  0  0  0  0
  7  6  1  0  0  0  0
  8  7  1  0  0  0  0
  9  8  2  0  0  0  0
 10  9  1  0  0  0  0
 10  5  1  0  0  0  0
 11  8  1  0  0  0  0
 12 11  2  0  0  0  0
 13 11  1  0  0  0  0
 14 12  1  0  0  0  0
 15 14  2  0  0  0  0
 16 15  1  0  0  0  0
 16 13  2  0  0  0  0
 17  4  1  0  0  0  0
 18  2  1  0  0  0  0
 19 10  2  0  0  0  0
 20 16  1  0  0  0  0
 21 15  1  0  0  0  0
M  END
> <DATABASE_ID>
HMDB05800

> <DATABASE_NAME>
hmdb

> <SMILES>
OC1=CC2=C(C(O)=C1)C(=O)C=C(O2)C1=CC=C(O)C(O)=C1

> <INCHI_IDENTIFIER>
InChI=1S/C15H10O6/c16-8-4-11(19)15-12(20)6-13(21-14(15)5-8)7-1-2-9(17)10(18)3-7/h1-6,16-19H

> <INCHI_KEY>
IQPNAANSBPBGFQ-UHFFFAOYSA-N

> <FORMULA>
C15H10O6

> <MOLECULAR_WEIGHT>
286.2363

> <EXACT_MASS>
286.047738052

> <JCHEM_ACCEPTOR_COUNT>
6

> <JCHEM_AVERAGE_POLARIZABILITY>
27.72752046099194

> <JCHEM_BIOAVAILABILITY>
1

> <JCHEM_DONOR_COUNT>
4

> <JCHEM_FORMAL_CHARGE>
0

> <JCHEM_GHOSE_FILTER>
1

> <JCHEM_IUPAC>
2-(3,4-dihydroxyphenyl)-5,7-dihydroxy-4H-chromen-4-one

> <ALOGPS_LOGP>
2.73

> <JCHEM_LOGP>
2.4031238119999996

> <ALOGPS_LOGS>
-3.32

> <JCHEM_MDDR_LIKE_RULE>
0

> <JCHEM_NUMBER_OF_RINGS>
3

> <JCHEM_PHYSIOLOGICAL_CHARGE>
-1

> <JCHEM_PKA>
8.613108223417168

> <JCHEM_PKA_STRONGEST_ACIDIC>
6.634115602420761

> <JCHEM_PKA_STRONGEST_BASIC>
-5.174527565863742

> <JCHEM_POLAR_SURFACE_AREA>
107.22

> <JCHEM_REFRACTIVITY>
74.8948

> <JCHEM_ROTATABLE_BOND_COUNT>
1

> <JCHEM_RULE_OF_FIVE>
1

> <ALOGPS_SOLUBILITY>
1.38e-01 g/l

> <JCHEM_TRADITIONAL_IUPAC>
luteolin

> <JCHEM_VEBER_RULE>
0

> <HMDB_ID>
HMDB05800

> <GENERIC_NAME>
Luteolin

> <SYNONYMS>
2-(3,4-Dihydroxyphenyl)-5,7-dihydroxy-4H-benzopyrone-4-one; 2-(3,4-Dihydroxyphenyl)-5,7-dihydroxy-4H-chromen-4-one; 5,7,3',4'-Tetrahydroxyflavone; Digitoflavone; Flacitran; Luteolin; Luteolol

$$$$
