2-Furancarboxylic acid.mol
  Mrv0541 02231218382D          

  8  8  0  0  0  0            999 V2000
   -0.4689    0.6674    0.0000 O   0  0  0  0  0  0  0  0  0  0  0  0
    0.0160    0.0000    0.0000 C   0  0  0  0  0  0  0  0  0  0  0  0
   -0.4689   -0.6674    0.0000 C   0  0  0  0  0  0  0  0  0  0  0  0
   -1.2535   -0.4125    0.0000 C   0  0  0  0  0  0  0  0  0  0  0  0
   -1.2535    0.4125    0.0000 C   0  0  0  0  0  0  0  0  0  0  0  0
    0.8410    0.0000    0.0000 C   0  0  0  0  0  0  0  0  0  0  0  0
    1.2535    0.7145    0.0000 O   0  0  0  0  0  0  0  0  0  0  0  0
    1.2535   -0.7145    0.0000 O   0  0  0  0  0  0  0  0  0  0  0  0
  1  2  1  0  0  0  0
  2  3  2  0  0  0  0
  3  4  1  0  0  0  0
  4  5  2  0  0  0  0
  1  5  1  0  0  0  0
  6  7  2  0  0  0  0
  6  8  1  0  0  0  0
  2  6  1  0  0  0  0
M  END
> <DATABASE_ID>
HMDB00617

> <DATABASE_NAME>
hmdb

> <SMILES>
OC(=O)C1=CC=CO1

> <INCHI_IDENTIFIER>
InChI=1S/C5H4O3/c6-5(7)4-2-1-3-8-4/h1-3H,(H,6,7)

> <INCHI_KEY>
SMNDYUVBFMFKNZ-UHFFFAOYSA-N

> <FORMULA>
C5H4O3

> <MOLECULAR_WEIGHT>
112.0835

> <EXACT_MASS>
112.016043994

> <JCHEM_ACCEPTOR_COUNT>
2

> <JCHEM_AVERAGE_POLARIZABILITY>
9.793535572471542

> <JCHEM_BIOAVAILABILITY>
1

> <JCHEM_DONOR_COUNT>
1

> <JCHEM_FORMAL_CHARGE>
0

> <JCHEM_GHOSE_FILTER>
0

> <JCHEM_IUPAC>
furan-2-carboxylic acid

> <ALOGPS_LOGP>
0.98

> <JCHEM_LOGP>
0.6910753679999999

> <ALOGPS_LOGS>
-0.62

> <JCHEM_MDDR_LIKE_RULE>
0

> <JCHEM_NUMBER_OF_RINGS>
1

> <JCHEM_PHYSIOLOGICAL_CHARGE>
-1

> <JCHEM_PKA_STRONGEST_ACIDIC>
3.121109478125223

> <JCHEM_PKA_STRONGEST_BASIC>
-4.602435803287369

> <JCHEM_POLAR_SURFACE_AREA>
50.44

> <JCHEM_REFRACTIVITY>
25.7051

> <JCHEM_ROTATABLE_BOND_COUNT>
1

> <JCHEM_RULE_OF_FIVE>
1

> <ALOGPS_SOLUBILITY>
2.71e+01 g/l

> <JCHEM_TRADITIONAL_IUPAC>
furoic acid

> <JCHEM_VEBER_RULE>
0

> <HMDB_ID>
HMDB00617

> <GENERIC_NAME>
2-Furoic acid

> <SYNONYMS>
2-Carboxyfuran; 2-Furanoate; 2-Furanoic acid; 2-Furoate; 2-Furoic acid; a-Furancarboxylate; a-Furancarboxylic acid; a-Furoate; a-Furoic acid; alpha-Furancarboxylate; alpha-Furancarboxylic acid; alpha-Furoate; alpha-Furoic acid; b-Furancarboxylate; b-Furancarboxylic acid; b-Furoate; b-Furoic acid; beta-Furancarboxylate; beta-Furancarboxylic acid; beta-Furoate; beta-Furoic acid; Furancarboxylate; Furancarboxylic acid; Furoate; Furoic acid; Pyromucate; Pyromucic acid

$$$$
