Galactonic acid.mol
  Mrv0541 02231218362D          

 13 12  0  0  0  0            999 V2000
   -1.0313   -0.3572    0.0000 C   0  0  0  0  0  0  0  0  0  0  0  0
   -0.6188    0.3572    0.0000 C   0  0  2  0  0  0  0  0  0  0  0  0
   -1.0313    1.0717    0.0000 O   0  0  0  0  0  0  0  0  0  0  0  0
    0.2062    0.3572    0.0000 C   0  0  1  0  0  0  0  0  0  0  0  0
    0.6188    1.0717    0.0000 O   0  0  0  0  0  0  0  0  0  0  0  0
    0.6188   -0.3572    0.0000 C   0  0  1  0  0  0  0  0  0  0  0  0
    0.2062   -1.0717    0.0000 O   0  0  0  0  0  0  0  0  0  0  0  0
    1.4437   -0.3572    0.0000 C   0  0  2  0  0  0  0  0  0  0  0  0
    1.8563   -1.0717    0.0000 O   0  0  0  0  0  0  0  0  0  0  0  0
    1.8563    0.3572    0.0000 C   0  0  0  0  0  0  0  0  0  0  0  0
    1.4438    1.0717    0.0000 O   0  0  0  0  0  0  0  0  0  0  0  0
   -0.6188   -1.0717    0.0000 O   0  0  0  0  0  0  0  0  0  0  0  0
   -1.8563   -0.3572    0.0000 O   0  0  0  0  0  0  0  0  0  0  0  0
  1  2  1  0  0  0  0
  2  3  1  6  0  0  0
  2  4  1  0  0  0  0
  4  5  1  1  0  0  0
  4  6  1  0  0  0  0
  6  7  1  6  0  0  0
  6  8  1  0  0  0  0
  8  9  1  1  0  0  0
  8 10  1  0  0  0  0
 10 11  1  0  0  0  0
  1 12  2  0  0  0  0
  1 13  1  0  0  0  0
M  END
> <DATABASE_ID>
HMDB00565

> <DATABASE_NAME>
hmdb

> <SMILES>
OC[C@@H](O)[C@H](O)[C@H](O)[C@@H](O)C(O)=O

> <INCHI_IDENTIFIER>
InChI=1S/C6H12O7/c7-1-2(8)3(9)4(10)5(11)6(12)13/h2-5,7-11H,1H2,(H,12,13)/t2-,3+,4+,5-/m1/s1

> <INCHI_KEY>
RGHNJXZEOKUKBD-MGCNEYSASA-N

> <FORMULA>
C6H12O7

> <MOLECULAR_WEIGHT>
196.1553

> <EXACT_MASS>
196.058302738

> <JCHEM_ACCEPTOR_COUNT>
7

> <JCHEM_AVERAGE_POLARIZABILITY>
17.065733396824918

> <JCHEM_BIOAVAILABILITY>
1

> <JCHEM_DONOR_COUNT>
6

> <JCHEM_FORMAL_CHARGE>
0

> <JCHEM_GHOSE_FILTER>
0

> <JCHEM_IUPAC>
(2R,3S,4S,5R)-2,3,4,5,6-pentahydroxyhexanoic acid

> <ALOGPS_LOGP>
-2.57

> <JCHEM_LOGP>
-3.4097443106666665

> <ALOGPS_LOGS>
-0.09

> <JCHEM_MDDR_LIKE_RULE>
0

> <JCHEM_NUMBER_OF_RINGS>
0

> <JCHEM_PHYSIOLOGICAL_CHARGE>
-1

> <JCHEM_PKA>
12.593710458724512

> <JCHEM_PKA_STRONGEST_ACIDIC>
3.3882055743218547

> <JCHEM_PKA_STRONGEST_BASIC>
-2.974220927705365

> <JCHEM_POLAR_SURFACE_AREA>
138.45

> <JCHEM_REFRACTIVITY>
38.271

> <JCHEM_ROTATABLE_BOND_COUNT>
5

> <JCHEM_RULE_OF_FIVE>
0

> <ALOGPS_SOLUBILITY>
1.59e+02 g/l

> <JCHEM_TRADITIONAL_IUPAC>
galactonic acid

> <JCHEM_VEBER_RULE>
0

> <HMDB_ID>
HMDB00565

> <GENERIC_NAME>
Galactonic acid

> <SYNONYMS>
D-galactonate; D-galactonic acid; Galactonate; Galactonic acid

$$$$
