
  Mrv0541 02231218472D          

 16 16  0  0  1  0            999 V2000
   12.0614   -8.6737    0.0000 C   0  0  0  0  0  0  0  0  0  0  0  0
   11.6455   -7.9569    0.0000 C   0  0  2  0  0  0  0  0  0  0  0  0
   12.8859   -8.6737    0.0000 O   0  0  0  0  0  0  0  0  0  0  0  0
   10.8211   -7.9569    0.0000 C   0  0  0  0  0  0  0  0  0  0  0  0
   10.4126   -8.6737    0.0000 C   0  0  0  0  0  0  0  0  0  0  0  0
   12.0614   -7.2438    0.0000 N   0  0  0  0  0  0  0  0  0  0  0  0
   11.6455   -9.3866    0.0000 O   0  0  0  0  0  0  0  0  0  0  0  0
    9.5882  -10.1033    0.0000 C   0  0  0  0  0  0  0  0  0  0  0  0
   10.8211   -9.3866    0.0000 C   0  0  0  0  0  0  0  0  0  0  0  0
    9.5882   -8.6737    0.0000 C   0  0  0  0  0  0  0  0  0  0  0  0
   10.4126  -10.1033    0.0000 C   0  0  0  0  0  0  0  0  0  0  0  0
    9.1723   -9.3866    0.0000 C   0  0  0  0  0  0  0  0  0  0  0  0
    9.1723  -10.8163    0.0000 O   0  0  0  0  0  0  0  0  0  0  0  0
   12.8868   -7.2476    0.0000 C   0  0  0  0  0  0  0  0  0  0  0  0
   13.3028   -6.5346    0.0000 O   0  0  0  0  0  0  0  0  0  0  0  0
   13.2963   -7.9644    0.0000 C   0  0  0  0  0  0  0  0  0  0  0  0
  2  1  1  0  0  0  0
  3  1  2  0  0  0  0
  7  1  1  0  0  0  0
  4  2  1  0  0  0  0
  2  6  1  6  0  0  0
  5  4  1  0  0  0  0
  9  5  1  0  0  0  0
 10  5  2  0  0  0  0
 12  8  2  0  0  0  0
 13  8  1  0  0  0  0
 11  8  1  0  0  0  0
 11  9  2  0  0  0  0
 12 10  1  0  0  0  0
 15 14  2  0  0  0  0
 16 14  1  0  0  0  0
  6 14  1  0  0  0  0
M  END
> <DATABASE_ID>
HMDB00866

> <DATABASE_NAME>
hmdb

> <SMILES>
CC(=O)N[C@@H](CC1=CC=C(O)C=C1)C(O)=O

> <INCHI_IDENTIFIER>
InChI=1S/C11H13NO4/c1-7(13)12-10(11(15)16)6-8-2-4-9(14)5-3-8/h2-5,10,14H,6H2,1H3,(H,12,13)(H,15,16)/t10-/m0/s1

> <INCHI_KEY>
CAHKINHBCWCHCF-JTQLQIEISA-N

> <FORMULA>
C11H13NO4

> <MOLECULAR_WEIGHT>
223.2252

> <EXACT_MASS>
223.084457909

> <JCHEM_ACCEPTOR_COUNT>
4

> <JCHEM_AVERAGE_POLARIZABILITY>
22.207127397134244

> <JCHEM_BIOAVAILABILITY>
1

> <JCHEM_DONOR_COUNT>
3

> <JCHEM_FORMAL_CHARGE>
0

> <JCHEM_GHOSE_FILTER>
1

> <JCHEM_IUPAC>
(2S)-2-acetamido-3-(4-hydroxyphenyl)propanoic acid

> <ALOGPS_LOGP>
1.03

> <JCHEM_LOGP>
0.5928963343333332

> <ALOGPS_LOGS>
-1.95

> <JCHEM_MDDR_LIKE_RULE>
0

> <JCHEM_NUMBER_OF_RINGS>
1

> <JCHEM_PHYSIOLOGICAL_CHARGE>
-1

> <JCHEM_PKA>
9.504642405547322

> <JCHEM_PKA_STRONGEST_ACIDIC>
3.6702360614092835

> <JCHEM_PKA_STRONGEST_BASIC>
-1.4776622716829717

> <JCHEM_POLAR_SURFACE_AREA>
86.63

> <JCHEM_REFRACTIVITY>
56.541000000000004

> <JCHEM_ROTATABLE_BOND_COUNT>
4

> <JCHEM_RULE_OF_FIVE>
1

> <ALOGPS_SOLUBILITY>
2.51e+00 g/l

> <JCHEM_TRADITIONAL_IUPAC>
acetyl-L-tyrosine

> <JCHEM_VEBER_RULE>
0

> <HMDB_ID>
HMDB00866

> <GENERIC_NAME>
N-Acetyl-L-tyrosine

> <SYNONYMS>
(2S)-2-Acetylamino-3-(4-hydroxyphenyl)propanoate; (2S)-2-Acetylamino-3-(4-hydroxyphenyl)propanoic acid; L-N-Acetyl-Tyrosine; L-N-Acetyltyrosine; N-Acetyl-4-hydroxyphenylalanine; N-Acetyl-L-tyrosine; N-Acetyl-tyrosine; N-Acetyltyrosine

$$$$
