N6-Acetyl-L-lysine.mol
  Mrv0541 02231218232D          

 13 12  0  0  0  0            999 V2000
    2.2688   -0.3572    0.0000 C   0  0  0  0  0  0  0  0  0  0  0  0
    1.0312    0.3572    0.0000 N   0  0  0  0  0  0  0  0  0  0  0  0
    1.4438   -0.3572    0.0000 C   0  0  1  0  0  0  0  0  0  0  0  0
    1.0313   -1.0717    0.0000 C   0  0  0  0  0  0  0  0  0  0  0  0
    0.2063   -1.0717    0.0000 C   0  0  0  0  0  0  0  0  0  0  0  0
   -0.2063   -0.3572    0.0000 C   0  0  0  0  0  0  0  0  0  0  0  0
   -1.0312   -0.3572    0.0000 C   0  0  0  0  0  0  0  0  0  0  0  0
   -1.4438    0.3572    0.0000 N   0  0  0  0  0  0  0  0  0  0  0  0
    2.6813   -1.0717    0.0000 O   0  0  0  0  0  0  0  0  0  0  0  0
    2.6813    0.3572    0.0000 O   0  0  0  0  0  0  0  0  0  0  0  0
   -2.2687    0.3572    0.0000 C   0  0  0  0  0  0  0  0  0  0  0  0
   -2.6813   -0.3572    0.0000 O   0  0  0  0  0  0  0  0  0  0  0  0
   -2.6812    1.0717    0.0000 C   0  0  0  0  0  0  0  0  0  0  0  0
  3  2  1  6  0  0  0
  1  3  1  0  0  0  0
  3  4  1  0  0  0  0
  4  5  1  0  0  0  0
  5  6  1  0  0  0  0
  6  7  1  0  0  0  0
  7  8  1  0  0  0  0
  1  9  2  0  0  0  0
  1 10  1  0  0  0  0
 11 12  2  0  0  0  0
 11 13  1  0  0  0  0
  8 11  1  0  0  0  0
M  END
> <DATABASE_ID>
HMDB00206

> <DATABASE_NAME>
hmdb

> <SMILES>
CC(=O)NCCCC[C@H](N)C(O)=O

> <INCHI_IDENTIFIER>
InChI=1S/C8H16N2O3/c1-6(11)10-5-3-2-4-7(9)8(12)13/h7H,2-5,9H2,1H3,(H,10,11)(H,12,13)/t7-/m0/s1

> <INCHI_KEY>
DTERQYGMUDWYAZ-ZETCQYMHSA-N

> <FORMULA>
C8H16N2O3

> <MOLECULAR_WEIGHT>
188.2242

> <EXACT_MASS>
188.116092388

> <JCHEM_ACCEPTOR_COUNT>
4

> <JCHEM_AVERAGE_POLARIZABILITY>
20.280289299797722

> <JCHEM_BIOAVAILABILITY>
1

> <JCHEM_DONOR_COUNT>
3

> <JCHEM_FORMAL_CHARGE>
0

> <JCHEM_GHOSE_FILTER>
0

> <JCHEM_IUPAC>
(2S)-2-amino-6-acetamidohexanoic acid

> <ALOGPS_LOGP>
-2.58

> <JCHEM_LOGP>
-3.153975026468822

> <ALOGPS_LOGS>
-1.03

> <JCHEM_MDDR_LIKE_RULE>
0

> <JCHEM_NUMBER_OF_RINGS>
0

> <JCHEM_PHYSIOLOGICAL_CHARGE>
0

> <JCHEM_PKA>
16.00927315808865

> <JCHEM_PKA_STRONGEST_ACIDIC>
2.43136046463385

> <JCHEM_PKA_STRONGEST_BASIC>
9.526531386971994

> <JCHEM_POLAR_SURFACE_AREA>
92.41999999999999

> <JCHEM_REFRACTIVITY>
47.2533

> <JCHEM_ROTATABLE_BOND_COUNT>
6

> <JCHEM_RULE_OF_FIVE>
1

> <ALOGPS_SOLUBILITY>
1.75e+01 g/l

> <JCHEM_TRADITIONAL_IUPAC>
N6-acetyllysine

> <JCHEM_VEBER_RULE>
0

> <HMDB_ID>
HMDB00206

> <GENERIC_NAME>
N6-Acetyl-L-lysine

> <SYNONYMS>
e-Acetyl-L-lysine; e-N-Acetyl-L-lysine; e-N-Acetyllysine; epsilon-Acetyl-L-lysine; epsilon-N-Acetyl-L-lysine; epsilon-N-Acetyllysine; L-e-N-Acetyllysine; L-epsilon-N-Acetyllysine; N-e-Acetyl-L-lysine; N-e-Acetyllysine; N-epsilon-Acetyl-L-lysine; N-epsilon-Acetyllysine; N6-Acetyl-L-lysine; N6-Acetyllysine; Ne-Acetyl-L-lysine; Ne-Acetyllysine; Omega-N-Acetyl-L-lysine; w-N-Acetyl-L-lysine

$$$$
