
  Mrv0541 02231218202D          

 12 12  0  0  1  0            999 V2000
   12.3216   -5.7537    0.0000 C   0  0  2  0  0  0  0  0  0  0  0  0
   12.3216   -6.5787    0.0000 C   0  0  2  0  0  0  0  0  0  0  0  0
   13.0332   -5.3412    0.0000 O   0  0  0  0  0  0  0  0  0  0  0  0
   11.6067   -5.3412    0.0000 C   0  0  0  0  0  0  0  0  0  0  0  0
   13.0332   -6.9911    0.0000 C   0  0  1  0  0  0  0  0  0  0  0  0
   11.6067   -6.9911    0.0000 O   0  0  0  0  0  0  0  0  0  0  0  0
   13.7515   -5.7537    0.0000 C   0  0  3  0  0  0  0  0  0  0  0  0
   10.9811   -5.8775    0.0000 O   0  0  0  0  0  0  0  0  0  0  0  0
   13.7515   -6.5787    0.0000 C   0  0  2  0  0  0  0  0  0  0  0  0
   13.0332   -7.8160    0.0000 O   0  0  0  0  0  0  0  0  0  0  0  0
   14.4630   -5.3412    0.0000 O   0  0  0  0  0  0  0  0  0  0  0  0
   14.4630   -6.9911    0.0000 O   0  0  0  0  0  0  0  0  0  0  0  0
  1  2  1  0  0  0  0
  1  3  1  0  0  0  0
  1  4  1  1  0  0  0
  2  5  1  0  0  0  0
  2  6  1  6  0  0  0
  3  7  1  0  0  0  0
  4  8  1  0  0  0  0
  5  9  1  0  0  0  0
  5 10  1  1  0  0  0
  7 11  1  4  0  0  0
  9 12  1  6  0  0  0
  7  9  1  0  0  0  0
M  END
> <DATABASE_ID>
HMDB00122

> <DATABASE_NAME>
hmdb

> <SMILES>
OC[C@H]1OC(O)[C@H](O)[C@@H](O)[C@@H]1O

> <INCHI_IDENTIFIER>
InChI=1S/C6H12O6/c7-1-2-3(8)4(9)5(10)6(11)12-2/h2-11H,1H2/t2-,3-,4+,5-,6?/m1/s1

> <INCHI_KEY>
WQZGKKKJIJFFOK-GASJEMHNSA-N

> <FORMULA>
C6H12O6

> <MOLECULAR_WEIGHT>
180.1559

> <EXACT_MASS>
180.063388116

> <JCHEM_ACCEPTOR_COUNT>
6

> <JCHEM_AVERAGE_POLARIZABILITY>
16.093921045882944

> <JCHEM_BIOAVAILABILITY>
1

> <JCHEM_DONOR_COUNT>
5

> <JCHEM_FORMAL_CHARGE>
0

> <JCHEM_GHOSE_FILTER>
0

> <JCHEM_IUPAC>
(3R,4S,5S,6R)-6-(hydroxymethyl)oxane-2,3,4,5-tetrol

> <ALOGPS_LOGP>
-2.57

> <JCHEM_LOGP>
-2.932539218

> <ALOGPS_LOGS>
0.64

> <JCHEM_MDDR_LIKE_RULE>
0

> <JCHEM_NUMBER_OF_RINGS>
1

> <JCHEM_PHYSIOLOGICAL_CHARGE>
0

> <JCHEM_PKA>
12.687538461190869

> <JCHEM_PKA_STRONGEST_ACIDIC>
11.298101552080594

> <JCHEM_PKA_STRONGEST_BASIC>
-2.9810792051782764

> <JCHEM_POLAR_SURFACE_AREA>
110.38000000000001

> <JCHEM_REFRACTIVITY>
35.923399999999994

> <JCHEM_ROTATABLE_BOND_COUNT>
1

> <JCHEM_RULE_OF_FIVE>
1

> <ALOGPS_SOLUBILITY>
7.82e+02 g/l

> <JCHEM_TRADITIONAL_IUPAC>
glucose

> <JCHEM_VEBER_RULE>
0

> <HMDB_ID>
HMDB00122

> <GENERIC_NAME>
D-Glucose

> <SYNONYMS>
 Roferose ST; (+)-Glucose; Anhydrous dextrose; Cerelose; Cerelose 2001; Clearsweet 95; Clintose L; Corn sugar; CPC hydrate; D(+)-Glucose; Dextropur; Dextrose; Dextrosol; Glucodin; Glucolin; Glucose; Goldsugar; Grape sugar; Meritose; Staleydex 111; Staleydex 95M; Tabfine 097(HS); Vadex

$$$$
