1132
  Mrv0541 02231219052D          

 26 27  0  0  1  0            999 V2000
    1.9050   -0.5710    0.0000 S   0  0  0  0  0  0  0  0  0  0  0  0
    3.0287    2.2713    0.0000 P   0  0  2  0  0  0  0  0  0  0  0  0
    3.1781    3.6925    0.0000 P   0  0  0  0  0  0  0  0  0  0  0  0
    3.3643    1.5175    0.0000 O   0  0  0  0  0  0  0  0  0  0  0  0
    2.6932    3.0249    0.0000 O   0  0  0  0  0  0  0  0  0  0  0  0
    3.7825    2.6068    0.0000 O   0  0  0  0  0  0  0  0  0  0  0  0
    2.2751    1.9357    0.0000 O   0  0  0  0  0  0  0  0  0  0  0  0
    2.5106    4.1773    0.0000 O   0  0  0  0  0  0  0  0  0  0  0  0
    3.6630    4.3599    0.0000 O   0  0  0  0  0  0  0  0  0  0  0  0
    3.8456    3.2075    0.0000 O   0  0  0  0  0  0  0  0  0  0  0  0
    2.3175   -1.8406    0.0000 N   0  3  0  0  0  0  0  0  0  0  0  0
    3.7465   -4.3157    0.0000 N   0  0  0  0  0  0  0  0  0  0  0  0
    4.4610   -3.0781    0.0000 N   0  0  0  0  0  0  0  0  0  0  0  0
    2.3175   -4.3157    0.0000 N   0  0  0  0  0  0  0  0  0  0  0  0
    2.9849   -1.3557    0.0000 C   0  0  0  0  0  0  0  0  0  0  0  0
    2.7300   -0.5710    0.0000 C   0  0  0  0  0  0  0  0  0  0  0  0
    2.3175   -2.6656    0.0000 C   0  0  0  0  0  0  0  0  0  0  0  0
    3.2149    0.0964    0.0000 C   0  0  0  0  0  0  0  0  0  0  0  0
    1.6500   -1.3557    0.0000 C   0  0  0  0  0  0  0  0  0  0  0  0
    2.8794    0.8501    0.0000 C   0  0  0  0  0  0  0  0  0  0  0  0
    3.0319   -3.0781    0.0000 C   0  0  0  0  0  0  0  0  0  0  0  0
    3.7696   -1.6106    0.0000 C   0  0  0  0  0  0  0  0  0  0  0  0
    3.0319   -3.9032    0.0000 C   0  0  0  0  0  0  0  0  0  0  0  0
    3.7465   -2.6656    0.0000 C   0  0  0  0  0  0  0  0  0  0  0  0
    4.4610   -3.9032    0.0000 C   0  0  0  0  0  0  0  0  0  0  0  0
    5.1754   -4.3157    0.0000 C   0  0  0  0  0  0  0  0  0  0  0  0
  1 16  1  0  0  0  0
  1 19  1  0  0  0  0
  2  4  1  0  0  0  0
  2  5  1  0  0  0  0
  2  6  1  1  0  0  0
  2  7  2  0  0  0  0
  3  5  1  0  0  0  0
  3  8  1  0  0  0  0
  3  9  1  0  0  0  0
  3 10  2  0  0  0  0
  4 20  1  0  0  0  0
 11 15  1  0  0  0  0
 11 17  1  0  0  0  0
 11 19  2  0  0  0  0
 12 23  2  0  0  0  0
 12 25  1  0  0  0  0
 13 24  1  0  0  0  0
 13 25  2  0  0  0  0
 14 23  1  0  0  0  0
 15 16  2  0  0  0  0
 15 22  1  0  0  0  0
 16 18  1  0  0  0  0
 17 21  1  0  0  0  0
 18 20  1  0  0  0  0
 21 23  1  0  0  0  0
 21 24  2  0  0  0  0
 25 26  1  0  0  0  0
M  CHG  1  11   1
M  END
> <DATABASE_ID>
HMDB01372

> <DATABASE_NAME>
hmdb

> <SMILES>
CC1=C(CCO[P@](O)(=O)OP(O)(O)=O)SC=[N+]1CC1=CN=C(C)N=C1N

> <INCHI_IDENTIFIER>
InChI=1S/C12H18N4O7P2S/c1-8-11(3-4-22-25(20,21)23-24(17,18)19)26-7-16(8)6-10-5-14-9(2)15-12(10)13/h5,7H,3-4,6H2,1-2H3,(H4-,13,14,15,17,18,19,20,21)/p+1

> <INCHI_KEY>
AYEKOFBPNLCAJY-UHFFFAOYSA-O

> <FORMULA>
C12H19N4O7P2S

> <MOLECULAR_WEIGHT>
425.314

> <EXACT_MASS>
425.044967696

> <JCHEM_ACCEPTOR_COUNT>
8

> <JCHEM_AVERAGE_POLARIZABILITY>
36.96379910680089

> <JCHEM_BIOAVAILABILITY>
1

> <JCHEM_DONOR_COUNT>
4

> <JCHEM_FORMAL_CHARGE>
1

> <JCHEM_GHOSE_FILTER>
0

> <JCHEM_IUPAC>
3-[(4-amino-2-methylpyrimidin-5-yl)methyl]-5-(2-{[hydroxy(phosphonooxy)phosphoryl]oxy}ethyl)-4-methyl-1,3-thiazol-3-ium

> <ALOGPS_LOGP>
-1.21

> <JCHEM_LOGP>
-5.811121942051653

> <ALOGPS_LOGS>
-3.48

> <JCHEM_MDDR_LIKE_RULE>
0

> <JCHEM_NUMBER_OF_RINGS>
2

> <JCHEM_PHYSIOLOGICAL_CHARGE>
-1

> <JCHEM_PKA>
3.1978567042362194

> <JCHEM_PKA_STRONGEST_ACIDIC>
1.778305935861734

> <JCHEM_PKA_STRONGEST_BASIC>
5.534004899065843

> <JCHEM_POLAR_SURFACE_AREA>
168.97

> <JCHEM_REFRACTIVITY>
95.1455

> <JCHEM_ROTATABLE_BOND_COUNT>
8

> <JCHEM_RULE_OF_FIVE>
1

> <ALOGPS_SOLUBILITY>
1.52e-01 g/l

> <JCHEM_TRADITIONAL_IUPAC>
thiamin pyrophosphate

> <JCHEM_VEBER_RULE>
0

> <HMDB_ID>
HMDB01372

> <GENERIC_NAME>
Thiamine pyrophosphate

> <SYNONYMS>
Thaimine pyrophosphate; Thiamin diphosphate; Thiamin pyrophosphate; Thiamin-PPi; Thiamine diphosphate; Thiamine pyrophosphate; Thiamine-PPi; Thiamine-pyrophosphate; ThPP; TPP

$$$$
