3-chlorotyrosine.mol
  Mrv0541 02231219142D          

 13 13  0  0  0  0            999 V2000
    1.4289    0.0000    0.0000 C   0  0  0  0  0  0  0  0  0  0  0  0
    0.7145   -0.4125    0.0000 C   0  0  0  0  0  0  0  0  0  0  0  0
    0.7145   -1.2375    0.0000 O   0  0  0  0  0  0  0  0  0  0  0  0
    0.0000    0.0000    0.0000 C   0  0  0  0  0  0  0  0  0  0  0  0
   -0.7145   -0.4125    0.0000 C   0  0  0  0  0  0  0  0  0  0  0  0
   -1.4289    0.0000    0.0000 C   0  0  0  0  0  0  0  0  0  0  0  0
   -1.4289    0.8250    0.0000 C   0  0  0  0  0  0  0  0  0  0  0  0
   -0.7145    1.2375    0.0000 C   0  0  0  0  0  0  0  0  0  0  0  0
    0.0000    0.8250    0.0000 C   0  0  0  0  0  0  0  0  0  0  0  0
    1.4289    0.8250    0.0000 O   0  0  0  0  0  0  0  0  0  0  0  0
    2.1434   -0.4125    0.0000 O   0  0  0  0  0  0  0  0  0  0  0  0
   -2.1434    1.2375    0.0000 O   0  0  0  0  0  0  0  0  0  0  0  0
   -2.1434   -0.4125    0.0000 O   0  0  0  0  0  0  0  0  0  0  0  0
  1  2  1  0  0  0  0
  2  3  1  0  0  0  0
  2  4  1  0  0  0  0
  4  5  1  0  0  0  0
  5  6  2  0  0  0  0
  6  7  1  0  0  0  0
  7  8  2  0  0  0  0
  8  9  1  0  0  0  0
  4  9  2  0  0  0  0
  1 10  2  0  0  0  0
  1 11  1  0  0  0  0
  7 12  1  0  0  0  0
  6 13  1  0  0  0  0
M  END
> <DATABASE_ID>
HMDB01866

> <DATABASE_NAME>
hmdb

> <SMILES>
OC(C(O)=O)C1=CC=C(O)C(O)=C1

> <INCHI_IDENTIFIER>
InChI=1S/C8H8O5/c9-5-2-1-4(3-6(5)10)7(11)8(12)13/h1-3,7,9-11H,(H,12,13)

> <INCHI_KEY>
RGHMISIYKIHAJW-UHFFFAOYSA-N

> <FORMULA>
C8H8O5

> <MOLECULAR_WEIGHT>
184.1461

> <EXACT_MASS>
184.037173366

> <JCHEM_ACCEPTOR_COUNT>
5

> <JCHEM_AVERAGE_POLARIZABILITY>
16.551262222752083

> <JCHEM_BIOAVAILABILITY>
1

> <JCHEM_DONOR_COUNT>
4

> <JCHEM_FORMAL_CHARGE>
0

> <JCHEM_GHOSE_FILTER>
1

> <JCHEM_IUPAC>
2-(3,4-dihydroxyphenyl)-2-hydroxyacetic acid

> <ALOGPS_LOGP>
0.72

> <JCHEM_LOGP>
0.28870500133333327

> <ALOGPS_LOGS>
-1.24

> <JCHEM_MDDR_LIKE_RULE>
0

> <JCHEM_NUMBER_OF_RINGS>
1

> <JCHEM_PHYSIOLOGICAL_CHARGE>
-1

> <JCHEM_PKA>
9.219357318675643

> <JCHEM_PKA_STRONGEST_ACIDIC>
2.976925854230665

> <JCHEM_PKA_STRONGEST_BASIC>
-4.126018555289758

> <JCHEM_POLAR_SURFACE_AREA>
97.99000000000001

> <JCHEM_REFRACTIVITY>
42.6656

> <JCHEM_ROTATABLE_BOND_COUNT>
2

> <JCHEM_RULE_OF_FIVE>
1

> <ALOGPS_SOLUBILITY>
1.07e+01 g/l

> <JCHEM_TRADITIONAL_IUPAC>
dihydroxymandelic acid

> <JCHEM_VEBER_RULE>
0

> <HMDB_ID>
HMDB01866

> <GENERIC_NAME>
3,4-Dihydroxymandelic acid

> <SYNONYMS>
3,4 Dihydroxymandelate; 3,4 Dihydroxymandelic acid; 3,4-Dihydroxymandelate; 3,4-Dihydroxyphenylglycolate; 3,4-Dihydroxyphenylglycolic acid; Dihydroxymandelate; Dihydroxymandelic acid

$$$$
