
  Mrv0541 02231219142D          

 10  9  0  0  1  0            999 V2000
   12.9893  -18.0669    0.0000 C   0  0  0  0  0  0  0  0  0  0  0  0
   11.7518  -17.3524    0.0000 C   0  0  0  0  0  0  0  0  0  0  0  0
   13.4018  -17.3524    0.0000 C   0  0  1  0  0  0  0  0  0  0  0  0
   12.1643  -16.6380    0.0000 C   0  0  1  0  0  0  0  0  0  0  0  0
   12.9893  -16.6380    0.0000 C   0  0  0  0  0  0  0  0  0  0  0  0
   13.4018  -18.7814    0.0000 O   0  0  0  0  0  0  0  0  0  0  0  0
   10.9268  -17.3524    0.0000 O   0  0  0  0  0  0  0  0  0  0  0  0
   14.2268  -17.3524    0.0000 O   0  0  0  0  0  0  0  0  0  0  0  0
   11.7518  -15.9235    0.0000 O   0  0  0  0  0  0  0  0  0  0  0  0
   13.4018  -15.9235    0.0000 O   0  0  0  0  0  0  0  0  0  0  0  0
  1  6  1  0  0  0  0
  1  3  1  0  0  0  0
  2  4  1  0  0  0  0
  2  7  1  0  0  0  0
  3  8  1  1  0  0  0
  3  5  1  0  0  0  0
  4  5  1  0  0  0  0
  4  9  1  6  0  0  0
  5 10  1  0  0  0  0
M  END
> <DATABASE_ID>
HMDB01851

> <DATABASE_NAME>
hmdb

> <SMILES>
OC[C@H](O)C(O)[C@@H](O)CO

> <INCHI_IDENTIFIER>
InChI=1S/C5H12O5/c6-1-3(8)5(10)4(9)2-7/h3-10H,1-2H2/t3-,4-/m0/s1

> <INCHI_KEY>
HEBKCHPVOIAQTA-IMJSIDKUSA-N

> <FORMULA>
C5H12O5

> <MOLECULAR_WEIGHT>
152.1458

> <EXACT_MASS>
152.068473494

> <JCHEM_ACCEPTOR_COUNT>
5

> <JCHEM_AVERAGE_POLARIZABILITY>
14.275101100378844

> <JCHEM_BIOAVAILABILITY>
1

> <JCHEM_DONOR_COUNT>
5

> <JCHEM_FORMAL_CHARGE>
0

> <JCHEM_GHOSE_FILTER>
0

> <JCHEM_IUPAC>
(2S,4S)-pentane-1,2,3,4,5-pentol

> <ALOGPS_LOGP>
-2.53

> <JCHEM_LOGP>
-3.099683906666666

> <ALOGPS_LOGS>
0.64

> <JCHEM_MDDR_LIKE_RULE>
0

> <JCHEM_NUMBER_OF_RINGS>
0

> <JCHEM_PHYSIOLOGICAL_CHARGE>
0

> <JCHEM_PKA>
13.742189661908146

> <JCHEM_PKA_STRONGEST_ACIDIC>
12.760078510562963

> <JCHEM_PKA_STRONGEST_BASIC>
-2.9742034412471314

> <JCHEM_POLAR_SURFACE_AREA>
101.15

> <JCHEM_REFRACTIVITY>
32.44109999999999

> <JCHEM_ROTATABLE_BOND_COUNT>
4

> <JCHEM_RULE_OF_FIVE>
1

> <ALOGPS_SOLUBILITY>
6.64e+02 g/l

> <JCHEM_TRADITIONAL_IUPAC>
arabinitol

> <JCHEM_VEBER_RULE>
0

> <HMDB_ID>
HMDB01851

> <GENERIC_NAME>
L-Arabitol

> <SYNONYMS>
 L(-)-Arabitol; 1,2,3,4,5-Pentahydroxypentane; Adonite Adonitol; Arabinitol; L-(+)-Arabitol; L-(-)-Arabinitol; L-(-)-Arabitol; L-Arabinitol; L-Arabinol

$$$$
