2-Methylbutyrylglycine.mol
  Mrv0541 02231218282D          

 11 10  0  0  0  0            999 V2000
    1.4289    0.2063    0.0000 C   0  0  0  0  0  0  0  0  0  0  0  0
    0.0000    0.2063    0.0000 N   0  0  0  0  0  0  0  0  0  0  0  0
    0.7145   -0.2063    0.0000 C   0  0  0  0  0  0  0  0  0  0  0  0
    1.4289    1.0313    0.0000 O   0  0  0  0  0  0  0  0  0  0  0  0
    2.1434   -0.2062    0.0000 O   0  0  0  0  0  0  0  0  0  0  0  0
   -0.7145   -0.2063    0.0000 C   0  0  0  0  0  0  0  0  0  0  0  0
   -0.7145   -1.0313    0.0000 O   0  0  0  0  0  0  0  0  0  0  0  0
   -1.4289    0.2062    0.0000 C   0  0  0  0  0  0  0  0  0  0  0  0
   -2.1434   -0.2063    0.0000 C   0  0  0  0  0  0  0  0  0  0  0  0
   -2.1434   -1.0313    0.0000 C   0  0  0  0  0  0  0  0  0  0  0  0
   -1.4289    1.0312    0.0000 C   0  0  0  0  0  0  0  0  0  0  0  0
  2  3  1  0  0  0  0
  1  3  1  0  0  0  0
  1  4  2  0  0  0  0
  1  5  1  0  0  0  0
  6  7  2  0  0  0  0
  6  8  1  0  0  0  0
  8  9  1  0  0  0  0
  9 10  1  0  0  0  0
  8 11  1  0  0  0  0
  2  6  1  0  0  0  0
M  END
> <DATABASE_ID>
HMDB00339

> <DATABASE_NAME>
hmdb

> <SMILES>
CCC(C)C(=O)NCC(O)=O

> <INCHI_IDENTIFIER>
InChI=1S/C7H13NO3/c1-3-5(2)7(11)8-4-6(9)10/h5H,3-4H2,1-2H3,(H,8,11)(H,9,10)

> <INCHI_KEY>
HOACIBQKYRHBOW-UHFFFAOYSA-N

> <FORMULA>
C7H13NO3

> <MOLECULAR_WEIGHT>
159.183

> <EXACT_MASS>
159.089543287

> <JCHEM_ACCEPTOR_COUNT>
3

> <JCHEM_AVERAGE_POLARIZABILITY>
16.546748155913473

> <JCHEM_BIOAVAILABILITY>
1

> <JCHEM_DONOR_COUNT>
2

> <JCHEM_FORMAL_CHARGE>
0

> <JCHEM_GHOSE_FILTER>
0

> <JCHEM_IUPAC>
2-(2-methylbutanamido)acetic acid

> <ALOGPS_LOGP>
0.41

> <JCHEM_LOGP>
0.3594618363333333

> <ALOGPS_LOGS>
-1.25

> <JCHEM_MDDR_LIKE_RULE>
0

> <JCHEM_NUMBER_OF_RINGS>
0

> <JCHEM_PHYSIOLOGICAL_CHARGE>
-1

> <JCHEM_PKA>
15.859217245121293

> <JCHEM_PKA_STRONGEST_ACIDIC>
4.166378769321073

> <JCHEM_PKA_STRONGEST_BASIC>
-1.0038927293039217

> <JCHEM_POLAR_SURFACE_AREA>
66.4

> <JCHEM_REFRACTIVITY>
39.2496

> <JCHEM_ROTATABLE_BOND_COUNT>
4

> <JCHEM_RULE_OF_FIVE>
1

> <ALOGPS_SOLUBILITY>
9.00e+00 g/l

> <JCHEM_TRADITIONAL_IUPAC>
2-methylbutyrylglycine

> <JCHEM_VEBER_RULE>
0

> <HMDB_ID>
HMDB00339

> <GENERIC_NAME>
2-Methylbutyrylglycine

> <SYNONYMS>
(2-methyl-butyrylamino)-acetate; (2-methyl-butyrylamino)-acetic acid; 2-MBG; 2-methylbutyryl glycine; 2-Methylbutyrylglycine; a-Methylbutyrylglycine; alpha-Methylbutyrylglycine; N-(2-Methylbutyryl)glycine; N-Sec-Valerylglycine

$$$$
