L-Aspartyl-L-phenylalanine.mol
  Mrv0541 02231218412D          

 20 20  0  0  0  0            999 V2000
   -0.8250   -0.7145    0.0000 C   0  0  0  0  0  0  0  0  0  0  0  0
    0.4125    0.0000    0.0000 N   0  0  0  0  0  0  0  0  0  0  0  0
   -0.4125    0.0000    0.0000 C   0  0  1  0  0  0  0  0  0  0  0  0
   -0.8250    0.7145    0.0000 C   0  0  0  0  0  0  0  0  0  0  0  0
   -1.6500    0.7145    0.0000 C   0  0  0  0  0  0  0  0  0  0  0  0
   -2.0625    0.0000    0.0000 C   0  0  0  0  0  0  0  0  0  0  0  0
   -2.8875    0.0000    0.0000 C   0  0  0  0  0  0  0  0  0  0  0  0
   -3.3000    0.7145    0.0000 C   0  0  0  0  0  0  0  0  0  0  0  0
   -2.8875    1.4289    0.0000 C   0  0  0  0  0  0  0  0  0  0  0  0
   -2.0625    1.4289    0.0000 C   0  0  0  0  0  0  0  0  0  0  0  0
   -0.4125   -1.4289    0.0000 O   0  0  0  0  0  0  0  0  0  0  0  0
   -1.6500   -0.7145    0.0000 O   0  0  0  0  0  0  0  0  0  0  0  0
    0.8250   -0.7145    0.0000 C   0  0  0  0  0  0  0  0  0  0  0  0
    2.0625   -1.4289    0.0000 N   0  0  0  0  0  0  0  0  0  0  0  0
    1.6500   -0.7145    0.0000 C   0  0  1  0  0  0  0  0  0  0  0  0
    2.0625    0.0000    0.0000 C   0  0  0  0  0  0  0  0  0  0  0  0
    2.8875    0.0000    0.0000 C   0  0  0  0  0  0  0  0  0  0  0  0
    3.3000    0.7145    0.0000 O   0  0  0  0  0  0  0  0  0  0  0  0
    3.3000   -0.7145    0.0000 O   0  0  0  0  0  0  0  0  0  0  0  0
    0.4125   -1.4289    0.0000 O   0  0  0  0  0  0  0  0  0  0  0  0
  3  2  1  6  0  0  0
  1  3  1  0  0  0  0
  3  4  1  0  0  0  0
  4  5  1  0  0  0  0
  5  6  1  0  0  0  0
  6  7  2  0  0  0  0
  7  8  1  0  0  0  0
  8  9  2  0  0  0  0
  9 10  1  0  0  0  0
  5 10  2  0  0  0  0
  1 11  2  0  0  0  0
  1 12  1  0  0  0  0
 15 14  1  6  0  0  0
 13 15  1  0  0  0  0
 15 16  1  0  0  0  0
 16 17  1  0  0  0  0
 17 18  2  0  0  0  0
 17 19  1  0  0  0  0
 13 20  2  0  0  0  0
  2 13  1  0  0  0  0
M  END
> <DATABASE_ID>
HMDB00706

> <DATABASE_NAME>
hmdb

> <SMILES>
N[C@@H](CC(O)=O)C(=O)N[C@@H](CC1=CC=CC=C1)C(O)=O

> <INCHI_IDENTIFIER>
InChI=1S/C13H16N2O5/c14-9(7-11(16)17)12(18)15-10(13(19)20)6-8-4-2-1-3-5-8/h1-5,9-10H,6-7,14H2,(H,15,18)(H,16,17)(H,19,20)/t9-,10-/m0/s1

> <INCHI_KEY>
YZQCXOFQZKCETR-UWVGGRQHSA-N

> <FORMULA>
C13H16N2O5

> <MOLECULAR_WEIGHT>
280.2765

> <EXACT_MASS>
280.105921632

> <JCHEM_ACCEPTOR_COUNT>
6

> <JCHEM_AVERAGE_POLARIZABILITY>
27.389588463482088

> <JCHEM_BIOAVAILABILITY>
1

> <JCHEM_DONOR_COUNT>
4

> <JCHEM_FORMAL_CHARGE>
0

> <JCHEM_GHOSE_FILTER>
0

> <JCHEM_IUPAC>
(3S)-3-amino-3-{[(1S)-1-carboxy-2-phenylethyl]carbamoyl}propanoic acid

> <ALOGPS_LOGP>
-2.43

> <JCHEM_LOGP>
-2.7545904565625334

> <ALOGPS_LOGS>
-2.39

> <JCHEM_MDDR_LIKE_RULE>
0

> <JCHEM_NUMBER_OF_RINGS>
1

> <JCHEM_PHYSIOLOGICAL_CHARGE>
-1

> <JCHEM_PKA>
3.859550014641755

> <JCHEM_PKA_STRONGEST_ACIDIC>
3.1651475800604603

> <JCHEM_PKA_STRONGEST_BASIC>
8.526464863794743

> <JCHEM_POLAR_SURFACE_AREA>
129.72

> <JCHEM_REFRACTIVITY>
68.4491

> <JCHEM_ROTATABLE_BOND_COUNT>
7

> <JCHEM_RULE_OF_FIVE>
1

> <ALOGPS_SOLUBILITY>
1.14e+00 g/l

> <JCHEM_TRADITIONAL_IUPAC>
L-aspartyl-L-phenylalanine

> <JCHEM_VEBER_RULE>
0

> <HMDB_ID>
HMDB00706

> <GENERIC_NAME>
L-Aspartyl-L-phenylalanine

> <SYNONYMS>
3-Amino-N-(a-carboxyphenethyl)-Succinamic acid stereoisomer; 3-Amino-N-(carboxyphenethyl)-Succinamic acid stereoisomer; a-Aspartylphenylalanine; a-L-Aspartyl-L-phenylalanine; alpha-Aspartylphenylalanine; alpha-L-Aspartyl-L-phenylalanine; Aspartylphenylalanine; Demethylaspartame; L-a-Aspartyl-L-phenylalanine; L-alpha-Aspartyl-L-phenylalanine; L-Aspartyl-L-phenylalanine; N-L-a-Aspartyl-L-PhenylAlanine; N-L-alpha-Aspartyl-L-PhenylAlanine; N-L-Aspartyl-L-PhenylAlanine

$$$$
