Xylulose-5-phosphate.mol
  Mrv0541 02231218482D          

 15 16  0  0  0  0            999 V2000
   -1.4289   -0.8250    0.0000 C   0  0  0  0  0  0  0  0  0  0  0  0
   -0.7145   -0.4125    0.0000 C   0  0  0  0  0  0  0  0  0  0  0  0
   -0.7145    0.4125    0.0000 C   0  0  0  0  0  0  0  0  0  0  0  0
    0.0000    0.8250    0.0000 C   0  0  0  0  0  0  0  0  0  0  0  0
    0.0000    1.6500    0.0000 O   0  0  0  0  0  0  0  0  0  0  0  0
    0.7145    0.4125    0.0000 C   0  0  0  0  0  0  0  0  0  0  0  0
    1.4289    0.8250    0.0000 C   0  0  0  0  0  0  0  0  0  0  0  0
    2.1434    0.4125    0.0000 C   0  0  0  0  0  0  0  0  0  0  0  0
    2.1434   -0.4125    0.0000 C   0  0  0  0  0  0  0  0  0  0  0  0
    1.4289   -0.8250    0.0000 C   0  0  0  0  0  0  0  0  0  0  0  0
    1.4289   -1.6500    0.0000 O   0  0  0  0  0  0  0  0  0  0  0  0
    0.7145   -0.4125    0.0000 C   0  0  0  0  0  0  0  0  0  0  0  0
    0.0000   -0.8250    0.0000 N   0  0  0  0  0  0  0  0  0  0  0  0
   -1.4289   -1.6500    0.0000 O   0  0  0  0  0  0  0  0  0  0  0  0
   -2.1434   -0.4125    0.0000 O   0  0  0  0  0  0  0  0  0  0  0  0
  1  2  1  0  0  0  0
  2  3  1  0  0  0  0
  3  4  2  0  0  0  0
  4  5  1  0  0  0  0
  4  6  1  0  0  0  0
  6  7  2  0  0  0  0
  7  8  1  0  0  0  0
  8  9  2  0  0  0  0
  9 10  1  0  0  0  0
 10 11  1  0  0  0  0
 10 12  2  0  0  0  0
  6 12  1  0  0  0  0
 12 13  1  0  0  0  0
  2 13  2  0  0  0  0
  1 14  2  0  0  0  0
  1 15  1  0  0  0  0
M  END
> <DATABASE_ID>
HMDB00881

> <DATABASE_NAME>
hmdb

> <SMILES>
OC(=O)C1=NC2=C(O)C=CC=C2C(O)=C1

> <INCHI_IDENTIFIER>
InChI=1S/C10H7NO4/c12-7-3-1-2-5-8(13)4-6(10(14)15)11-9(5)7/h1-4,12H,(H,11,13)(H,14,15)

> <INCHI_KEY>
FBZONXHGGPHHIY-UHFFFAOYSA-N

> <FORMULA>
C10H7NO4

> <MOLECULAR_WEIGHT>
205.1669

> <EXACT_MASS>
205.037507717

> <JCHEM_ACCEPTOR_COUNT>
5

> <JCHEM_AVERAGE_POLARIZABILITY>
19.06402266669147

> <JCHEM_BIOAVAILABILITY>
1

> <JCHEM_DONOR_COUNT>
3

> <JCHEM_FORMAL_CHARGE>
0

> <JCHEM_GHOSE_FILTER>
1

> <JCHEM_IUPAC>
4,8-dihydroxyquinoline-2-carboxylic acid

> <ALOGPS_LOGP>
2.01

> <JCHEM_LOGP>
0.7778810813708312

> <ALOGPS_LOGS>
-2.10

> <JCHEM_MDDR_LIKE_RULE>
0

> <JCHEM_NUMBER_OF_RINGS>
2

> <JCHEM_PHYSIOLOGICAL_CHARGE>
-1

> <JCHEM_PKA>
9.138147668413941

> <JCHEM_PKA_STRONGEST_ACIDIC>
1.1175392089427412

> <JCHEM_PKA_STRONGEST_BASIC>
5.302826320918157

> <JCHEM_POLAR_SURFACE_AREA>
90.65

> <JCHEM_REFRACTIVITY>
50.8253

> <JCHEM_ROTATABLE_BOND_COUNT>
1

> <JCHEM_RULE_OF_FIVE>
1

> <ALOGPS_SOLUBILITY>
1.63e+00 g/l

> <JCHEM_TRADITIONAL_IUPAC>
xanthurenic acid

> <JCHEM_VEBER_RULE>
0

> <HMDB_ID>
HMDB00881

> <GENERIC_NAME>
Xanthurenic acid

> <SYNONYMS>
4,8-Dihydroxy-2-quinolinecarboxylate; 4,8-Dihydroxy-2-quinolinecarboxylic acid; 4,8-Dihydroxy-Quinaldate; 4,8-Dihydroxy-Quinaldic acid; 4,8-Dihydroxyquinaldate; 4,8-Dihydroxyquinaldic acid; 4,8-Dihydroxyquinaldinate; 4,8-Dihydroxyquinaldinic acid; 4,8-Dihydroxyquinoline-2-carboxylate; 4,8-Dihydroxyquinoline-2-carboxylic acid; 4-Oxoxanthurenic acid; 8-Hydroxykynurenate; 8-Hydroxykynurenic acid; Oxoxanthurenate; Xanthurate; Xanthurenate; Xanthuric acid

$$$$
