
  Mrv0541 02231218472D          

  8  8  0  0  0  0            999 V2000
    4.6717  -11.9736    0.0000 C   0  0  0  0  0  0  0  0  0  0  0  0
    4.4159  -12.7649    0.0000 C   0  0  0  0  0  0  0  0  0  0  0  0
    4.0013  -11.4864    0.0000 N   0  0  0  0  0  0  0  0  0  0  0  0
    3.5832  -12.7649    0.0000 N   0  0  0  0  0  0  0  0  0  0  0  0
    3.3275  -11.9736    0.0000 C   0  0  0  0  0  0  0  0  0  0  0  0
    5.1273  -13.1730    0.0000 C   0  0  0  0  0  0  0  0  0  0  0  0
    5.8413  -12.7597    0.0000 C   0  0  0  0  0  0  0  0  0  0  0  0
    6.5553  -13.1689    0.0000 N   0  0  0  0  0  0  0  0  0  0  0  0
  2  4  1  0  0  0  0
  3  5  1  0  0  0  0
  4  5  2  0  0  0  0
  2  6  1  0  0  0  0
  1  2  2  0  0  0  0
  6  7  1  0  0  0  0
  1  3  1  0  0  0  0
  7  8  1  0  0  0  0
M  END
> <DATABASE_ID>
HMDB00870

> <DATABASE_NAME>
hmdb

> <SMILES>
NCCC1=CNC=N1

> <INCHI_IDENTIFIER>
InChI=1S/C5H9N3/c6-2-1-5-3-7-4-8-5/h3-4H,1-2,6H2,(H,7,8)

> <INCHI_KEY>
NTYJJOPFIAHURM-UHFFFAOYSA-N

> <FORMULA>
C5H9N3

> <MOLECULAR_WEIGHT>
111.1451

> <EXACT_MASS>
111.079647303

> <JCHEM_ACCEPTOR_COUNT>
2

> <JCHEM_AVERAGE_POLARIZABILITY>
12.084101987650204

> <JCHEM_BIOAVAILABILITY>
1

> <JCHEM_DONOR_COUNT>
2

> <JCHEM_FORMAL_CHARGE>
0

> <JCHEM_GHOSE_FILTER>
0

> <JCHEM_IUPAC>
2-(1H-imidazol-4-yl)ethan-1-amine

> <ALOGPS_LOGP>
-0.69

> <JCHEM_LOGP>
-0.7009711443333334

> <ALOGPS_LOGS>
0.18

> <JCHEM_MDDR_LIKE_RULE>
0

> <JCHEM_NUMBER_OF_RINGS>
1

> <JCHEM_PHYSIOLOGICAL_CHARGE>
1

> <JCHEM_PKA_STRONGEST_ACIDIC>
14.456615295256658

> <JCHEM_PKA_STRONGEST_BASIC>
9.576453109401491

> <JCHEM_POLAR_SURFACE_AREA>
54.7

> <JCHEM_REFRACTIVITY>
31.663399999999996

> <JCHEM_ROTATABLE_BOND_COUNT>
2

> <JCHEM_RULE_OF_FIVE>
1

> <ALOGPS_SOLUBILITY>
1.69e+02 g/l

> <JCHEM_TRADITIONAL_IUPAC>
histamine

> <JCHEM_VEBER_RULE>
0

> <HMDB_ID>
HMDB00870

> <GENERIC_NAME>
Histamine

> <SYNONYMS>
1H-Imidazole-4-ethanamine; 2-(1H-Imidazol-4-yl)ethanamine; 2-(1H-Imidazol-4-yl)ethylamine; 2-(1H-Imidazol-5-yl)ethanamine; 2-(1H-Imidazol-5-yl)ethylamine; 2-(4-Imidazolyl)ethanamine; 2-(4-Imidazolyl)ethylamine; 2-Imidazol-4-yl-Ethylamine; 2-Imidazol-4-ylethylamine; 4-(2-Aminoethyl)-1H-imidazole; 4-(2-Aminoethyl)imidazole; 4-Imidazoleethylamine; 5-Imidazoleethylamine; b-Imidazolyl-4-ethylamine; beta-Aminoethylglyoxaline; beta-Aminoethylimidazole; beta-Aminothethylglyoxaline; beta-Imidazolyl-4-ethylamine; Eramin; Ergamine; Ergotidine; Free histamine; Histamine; HSM; L-Histamin base; L-Histamine; Theramine

$$$$
