16a-Hydroxyestrone.mol
  Mrv0541 02231218272D          

 24 27  0  0  0  0            999 V2000
   -2.4762   -1.3448    0.0000 C   0  0  0  0  0  0  0  0  0  0  0  0
   -3.1907   -1.7573    0.0000 O   0  0  0  0  0  0  0  0  0  0  0  0
   -2.4762   -0.5198    0.0000 C   0  0  0  0  0  0  0  0  0  0  0  0
   -1.7617   -0.1073    0.0000 C   0  0  0  0  0  0  0  0  0  0  0  0
   -1.7617   -1.7573    0.0000 C   0  0  0  0  0  0  0  0  0  0  0  0
   -1.0473   -1.3448    0.0000 C   0  0  0  0  0  0  0  0  0  0  0  0
   -0.3328   -1.7573    0.0000 C   0  0  0  0  0  0  0  0  0  0  0  0
    0.3817   -1.3448    0.0000 C   0  0  0  0  0  0  0  0  0  0  0  0
    0.3817   -0.5198    0.0000 C   0  0  1  0  0  0  0  0  0  0  0  0
    1.0961   -0.1073    0.0000 C   0  0  2  0  0  0  0  0  0  0  0  0
    1.8808   -0.3622    0.0000 C   0  0  0  0  0  0  0  0  0  0  0  0
    2.3657    0.3052    0.0000 C   0  0  2  0  0  0  0  0  0  0  0  0
    1.8808    0.9727    0.0000 C   0  0  0  0  0  0  0  0  0  0  0  0
    2.1357    1.7573    0.0000 O   0  0  0  0  0  0  0  0  0  0  0  0
    1.0961    0.7177    0.0000 C   0  0  2  0  0  0  0  0  0  0  0  0
    1.0961    1.5427    0.0000 C   0  0  0  0  0  0  0  0  0  0  0  0
    0.3817    1.1302    0.0000 C   0  0  0  0  0  0  0  0  0  0  0  0
   -0.3328    0.7177    0.0000 C   0  0  0  0  0  0  0  0  0  0  0  0
   -0.3328   -0.1073    0.0000 C   0  0  2  0  0  0  0  0  0  0  0  0
   -1.0473   -0.5198    0.0000 C   0  0  0  0  0  0  0  0  0  0  0  0
    3.1907    0.3052    0.0000 O   0  0  0  0  0  0  0  0  0  0  0  0
   -0.3328   -0.9323    0.0000 H   0  0  0  0  0  0  0  0  0  0  0  0
    0.3817    0.3052    0.0000 H   0  0  0  0  0  0  0  0  0  0  0  0
    1.0961   -0.9323    0.0000 H   0  0  0  0  0  0  0  0  0  0  0  0
  1  2  1  0  0  0  0
  1  3  1  0  0  0  0
  3  4  2  0  0  0  0
  1  5  2  0  0  0  0
  5  6  1  0  0  0  0
  6  7  1  0  0  0  0
  7  8  1  0  0  0  0
  8  9  1  0  0  0  0
  9 10  1  0  0  0  0
 10 11  1  0  0  0  0
 11 12  1  0  0  0  0
 12 13  1  0  0  0  0
 13 14  2  0  0  0  0
 13 15  1  0  0  0  0
 10 15  1  0  0  0  0
 15 16  1  1  0  0  0
 15 17  1  0  0  0  0
 17 18  1  0  0  0  0
 18 19  1  0  0  0  0
  9 19  1  0  0  0  0
 19 20  1  0  0  0  0
  4 20  1  0  0  0  0
  6 20  2  0  0  0  0
 12 21  1  6  0  0  0
 19 22  1  6  0  0  0
  9 23  1  1  0  0  0
 10 24  1  6  0  0  0
M  END
> <DATABASE_ID>
HMDB00335

> <DATABASE_NAME>
hmdb

> <SMILES>
[H][C@@]12C[C@@H](O)C(=O)[C@@]1(C)CC[C@]1([H])C3=C(CC[C@@]21[H])C=C(O)C=C3

> <INCHI_IDENTIFIER>
InChI=1S/C18H22O3/c1-18-7-6-13-12-5-3-11(19)8-10(12)2-4-14(13)15(18)9-16(20)17(18)21/h3,5,8,13-16,19-20H,2,4,6-7,9H2,1H3/t13-,14-,15+,16-,18+/m1/s1

> <INCHI_KEY>
WPOCIZJTELRQMF-QFXBJFAPSA-N

> <FORMULA>
C18H22O3

> <MOLECULAR_WEIGHT>
286.3655

> <EXACT_MASS>
286.15689457

> <JCHEM_ACCEPTOR_COUNT>
3

> <JCHEM_AVERAGE_POLARIZABILITY>
32.06150844928477

> <JCHEM_BIOAVAILABILITY>
1

> <JCHEM_DONOR_COUNT>
2

> <JCHEM_FORMAL_CHARGE>
0

> <JCHEM_GHOSE_FILTER>
1

> <JCHEM_IUPAC>
(1S,10R,11S,13R,15S)-5,13-dihydroxy-15-methyltetracyclo[8.7.0.0²,⁷.0¹¹,¹⁵]heptadeca-2(7),3,5-trien-14-one

> <ALOGPS_LOGP>
2.45

> <JCHEM_LOGP>
3.4379631133333346

> <ALOGPS_LOGS>
-3.79

> <JCHEM_MDDR_LIKE_RULE>
0

> <JCHEM_NUMBER_OF_RINGS>
4

> <JCHEM_PHYSIOLOGICAL_CHARGE>
0

> <JCHEM_PKA>
13.38257874741176

> <JCHEM_PKA_STRONGEST_ACIDIC>
10.326567997010477

> <JCHEM_PKA_STRONGEST_BASIC>
-3.506418620839579

> <JCHEM_POLAR_SURFACE_AREA>
57.53

> <JCHEM_REFRACTIVITY>
80.57459999999999

> <JCHEM_ROTATABLE_BOND_COUNT>
0

> <JCHEM_RULE_OF_FIVE>
1

> <ALOGPS_SOLUBILITY>
4.68e-02 g/l

> <JCHEM_TRADITIONAL_IUPAC>
16α-hydroxyestrone

> <JCHEM_VEBER_RULE>
0

> <HMDB_ID>
HMDB00335

> <GENERIC_NAME>
16a-Hydroxyestrone

> <SYNONYMS>
16 alpha-Hydroxyestrone; 16a-Hydroxyestrone; 3,16a-Dihydroxy-1,3,5(10)-estratrien-17-one; 3,16a-Dihydroxy-Estra-1,3,5(10)-trien-17-one; Estra-1,3,5(10)-triene-3,16a-diol-17-one

$$$$
