Hippuric acid.mol
  Mrv0541 02231218422D          

 13 13  0  0  0  0            999 V2000
   -1.7862    0.0000    0.0000 C   0  0  0  0  0  0  0  0  0  0  0  0
   -1.0717    0.4125    0.0000 C   0  0  0  0  0  0  0  0  0  0  0  0
   -0.3572    0.0000    0.0000 N   0  0  0  0  0  0  0  0  0  0  0  0
    0.3572    0.4125    0.0000 C   0  0  0  0  0  0  0  0  0  0  0  0
    0.3572    1.2375    0.0000 O   0  0  0  0  0  0  0  0  0  0  0  0
    1.0717    0.0000    0.0000 C   0  0  0  0  0  0  0  0  0  0  0  0
    1.7862    0.4125    0.0000 C   0  0  0  0  0  0  0  0  0  0  0  0
    2.5006    0.0000    0.0000 C   0  0  0  0  0  0  0  0  0  0  0  0
    2.5006   -0.8250    0.0000 C   0  0  0  0  0  0  0  0  0  0  0  0
    1.7862   -1.2375    0.0000 C   0  0  0  0  0  0  0  0  0  0  0  0
    1.0717   -0.8250    0.0000 C   0  0  0  0  0  0  0  0  0  0  0  0
   -1.7862   -0.8250    0.0000 O   0  0  0  0  0  0  0  0  0  0  0  0
   -2.5006    0.4125    0.0000 O   0  0  0  0  0  0  0  0  0  0  0  0
  1  2  1  0  0  0  0
  2  3  1  0  0  0  0
  3  4  1  0  0  0  0
  4  5  2  0  0  0  0
  4  6  1  0  0  0  0
  6  7  1  0  0  0  0
  7  8  2  0  0  0  0
  8  9  1  0  0  0  0
  9 10  2  0  0  0  0
 10 11  1  0  0  0  0
  6 11  2  0  0  0  0
  1 12  2  0  0  0  0
  1 13  1  0  0  0  0
M  END
> <DATABASE_ID>
HMDB00714

> <DATABASE_NAME>
hmdb

> <SMILES>
OC(=O)CNC(=O)C1=CC=CC=C1

> <INCHI_IDENTIFIER>
InChI=1S/C9H9NO3/c11-8(12)6-10-9(13)7-4-2-1-3-5-7/h1-5H,6H2,(H,10,13)(H,11,12)

> <INCHI_KEY>
QIAFMBKCNZACKA-UHFFFAOYSA-N

> <FORMULA>
C9H9NO3

> <MOLECULAR_WEIGHT>
179.1727

> <EXACT_MASS>
179.058243159

> <JCHEM_ACCEPTOR_COUNT>
3

> <JCHEM_AVERAGE_POLARIZABILITY>
17.573850113066648

> <JCHEM_BIOAVAILABILITY>
1

> <JCHEM_DONOR_COUNT>
2

> <JCHEM_FORMAL_CHARGE>
0

> <JCHEM_GHOSE_FILTER>
1

> <JCHEM_IUPAC>
2-(phenylformamido)acetic acid

> <ALOGPS_LOGP>
0.23

> <JCHEM_LOGP>
0.5255454843333334

> <ALOGPS_LOGS>
-2.18

> <JCHEM_MDDR_LIKE_RULE>
0

> <JCHEM_NUMBER_OF_RINGS>
1

> <JCHEM_PHYSIOLOGICAL_CHARGE>
-1

> <JCHEM_PKA>
15.086777361875988

> <JCHEM_PKA_STRONGEST_ACIDIC>
3.5912349806754684

> <JCHEM_PKA_STRONGEST_BASIC>
-1.5179170402921622

> <JCHEM_POLAR_SURFACE_AREA>
66.4

> <JCHEM_REFRACTIVITY>
46.117700000000006

> <JCHEM_ROTATABLE_BOND_COUNT>
3

> <JCHEM_RULE_OF_FIVE>
1

> <ALOGPS_SOLUBILITY>
1.18e+00 g/l

> <JCHEM_TRADITIONAL_IUPAC>
hippuric acid

> <JCHEM_VEBER_RULE>
0

> <HMDB_ID>
HMDB00714

> <GENERIC_NAME>
Hippuric acid

> <SYNONYMS>
(benzoylamino)-Acetate; (benzoylamino)-Acetic acid; 2-Benzamidoacetate; 2-Benzamidoacetic acid; Benzamidoacetate; Benzamidoacetic acid; Benzoylglycine; Hippurate; N-Benzoylglycine; Phenylcarbonylaminoacetate; Phenylcarbonylaminoacetic acid

$$$$
