277
  Mrv0541 02231214342D          

 13 14  0  0  0  0            999 V2000
    3.0791    1.6500    0.0000 O   0  0  0  0  0  0  0  0  0  0  0  0
    1.6500   -0.8250    0.0000 O   0  0  0  0  0  0  0  0  0  0  0  0
    3.0791   -0.8250    0.0000 N   0  0  0  0  0  0  0  0  0  0  0  0
    2.3645    0.4125    0.0000 N   0  0  0  0  0  0  0  0  0  0  0  0
    4.5741    0.6639    0.0000 N   0  0  0  0  0  0  0  0  0  0  0  0
    4.5741   -0.6639    0.0000 N   0  0  0  0  0  0  0  0  0  0  0  0
    3.7935   -0.4125    0.0000 C   0  0  0  0  0  0  0  0  0  0  0  0
    3.7935    0.4125    0.0000 C   0  0  0  0  0  0  0  0  0  0  0  0
    3.0791    0.8250    0.0000 C   0  0  0  0  0  0  0  0  0  0  0  0
    2.3645   -0.4125    0.0000 C   0  0  0  0  0  0  0  0  0  0  0  0
    3.0791   -1.6500    0.0000 C   0  0  0  0  0  0  0  0  0  0  0  0
    1.6500    0.8250    0.0000 C   0  0  0  0  0  0  0  0  0  0  0  0
    5.0556    0.0000    0.0000 C   0  0  0  0  0  0  0  0  0  0  0  0
  1  9  2  0  0  0  0
  2 10  2  0  0  0  0
  3  7  1  0  0  0  0
  3 10  1  0  0  0  0
  3 11  1  0  0  0  0
  4  9  1  0  0  0  0
  4 10  1  0  0  0  0
  4 12  1  0  0  0  0
  5  8  1  0  0  0  0
  5 13  1  0  0  0  0
  6  7  1  0  0  0  0
  6 13  2  0  0  0  0
  7  8  2  0  0  0  0
  8  9  1  0  0  0  0
M  END
> <DATABASE_ID>
HMDB01889

> <DATABASE_NAME>
hmdb

> <SMILES>
CN1C2=C(NC=N2)C(=O)N(C)C1=O

> <INCHI_IDENTIFIER>
InChI=1S/C7H8N4O2/c1-10-5-4(8-3-9-5)6(12)11(2)7(10)13/h3H,1-2H3,(H,8,9)

> <INCHI_KEY>
ZFXYFBGIUFBOJW-UHFFFAOYSA-N

> <FORMULA>
C7H8N4O2

> <MOLECULAR_WEIGHT>
180.164

> <EXACT_MASS>
180.06472552

> <JCHEM_ACCEPTOR_COUNT>
3

> <JCHEM_AVERAGE_POLARIZABILITY>
16.85540087856322

> <JCHEM_BIOAVAILABILITY>
1

> <JCHEM_DONOR_COUNT>
1

> <JCHEM_FORMAL_CHARGE>
0

> <JCHEM_GHOSE_FILTER>
0

> <JCHEM_IUPAC>
1,3-dimethyl-2,3,6,7-tetrahydro-1H-purine-2,6-dione

> <ALOGPS_LOGP>
-0.26

> <JCHEM_LOGP>
-0.7693216573333334

> <ALOGPS_LOGS>
-0.90

> <JCHEM_MDDR_LIKE_RULE>
0

> <JCHEM_NUMBER_OF_RINGS>
2

> <JCHEM_PHYSIOLOGICAL_CHARGE>
0

> <JCHEM_PKA_STRONGEST_ACIDIC>
7.815127426971927

> <JCHEM_PKA_STRONGEST_BASIC>
-0.77711753278622

> <JCHEM_POLAR_SURFACE_AREA>
69.30000000000001

> <JCHEM_REFRACTIVITY>
44.9345

> <JCHEM_ROTATABLE_BOND_COUNT>
0

> <JCHEM_RULE_OF_FIVE>
1

> <ALOGPS_SOLUBILITY>
2.29e+01 g/l

> <JCHEM_TRADITIONAL_IUPAC>
theophylline

> <JCHEM_VEBER_RULE>
0

> <HMDB_ID>
HMDB01889

> <GENERIC_NAME>
Theophylline

> <SYNONYMS>
1,3-Dimethylxanthine; Accurbron; Acet-theocin; Aerolate; Aerolate III; Aerolate SR; Aminophylline; Aquaphyllin; Armophylline; Asbron; Asmax; Austyn; Bronkodyl; Bronkodyl SR; Choledyl SA; Constant-T; Diphyllin; Doraphyllin; Duraphyl; Dyspne-Inhal; Elixex; Elixicon; Elixomin; Elixophyllin; Elixophyllin SR; Elixophylline; Euphylline; Euphylong; Labid; Lanophyllin; Liquophylline; Liquorice; Maphylline; Medaphyllin; Nuelin; Optiphyllin; Parkophyllin; Pseudotheophylline; Quibron T/SR; Quibron-T; Quibron-T/Sr; Respbid; Slo-Bid; Slo-Phyllin; Solosin; Somophyllin-Crt; Somophyllin-DF; Somophyllin-T; Spophyllin retard; Sustaire; Synophylate; Synophylate-L.A. Cenules; T-Phyl; Tefamin; Teofilina; Teofyllamin; Teolair; Theacitin; Theal tabl.; Theal tablets; Theo-Dur; Theo-Dur-Sprinkle; Theobid; Theobid Jr.; Theochron; Theocin; Theoclair-SR; Theoclear 80; Theoclear L.A.-130; Theoclear LA; Theoclear-200; Theoclear-80; Theocontin; Theodel; Theofol; Theograd; Theolair; Theolair-Sr; Theolix; Theolixir; Theona P; Theophyl; Theophyl-225; Theophyl-Sr; Theophyline; Theophyllin; Theophylline anhydrous; Theophylline-Sr; Theostat 80; Theovent; Uni-Dur; Unifyl; Uniphyl; Uniphyllin; Xanthium; Xantivent

$$$$
