 
  Mrv0541 02231218432D          
 
 45 48  0  0  1  0            999 V2000
   12.3910  -11.5456    0.0000 C   0  0  1  0  0  0  0  0  0  0  0  0
   12.6900  -10.7275    0.0000 C   0  0  2  0  0  0  0  0  0  0  0  0
   11.6306  -11.9259    0.0000 O   0  0  0  0  0  0  0  0  0  0  0  0
   12.9391  -12.1409    0.0000 C   0  0  1  0  0  0  0  0  0  0  0  0
   13.5239  -10.5938    0.0000 O   0  0  0  0  0  0  0  0  0  0  0  0
   12.0257   -9.8861    0.0000 C   0  0  0  0  0  0  0  0  0  0  0  0
   10.8518  -11.6611    0.0000 C   0  0  1  0  0  0  0  0  0  0  0  0
   13.7257  -12.0046    0.0000 C   0  0  2  0  0  0  0  0  0  0  0  0
   12.6795  -12.9302    0.0000 O   0  0  0  0  0  0  0  0  0  0  0  0
   14.0300  -11.2546    0.0000 C   0  0  1  0  0  0  0  0  0  0  0  0
   12.6002   -9.2996    0.0000 O   0  0  0  0  0  0  0  0  0  0  0  0
   10.5476  -10.8979    0.0000 O   0  0  0  0  0  0  0  0  0  0  0  0
   10.3247  -12.3245    0.0000 C   0  0  1  0  0  0  0  0  0  0  0  0
   14.2450  -12.6444    0.0000 O   0  0  0  0  0  0  0  0  0  0  0  0
   14.8691  -11.3647    0.0000 O   0  0  0  0  0  0  0  0  0  0  0  0
   12.0653   -8.6729    0.0000 C   0  0  1  0  0  0  0  0  0  0  0  0
    9.7190  -10.7931    0.0000 C   0  0  1  0  0  0  0  0  0  0  0  0
    9.5249  -12.2143    0.0000 C   0  0  2  0  0  0  0  0  0  0  0  0
   10.7143  -12.9273    0.0000 O   0  0  0  0  0  0  0  0  0  0  0  0
   15.5115  -10.8534    0.0000 C   0  0  2  0  0  0  0  0  0  0  0  0
   12.3406   -7.8993    0.0000 O   0  0  0  0  0  0  0  0  0  0  0  0
   11.2550   -8.8250    0.0000 C   0  0  1  0  0  0  0  0  0  0  0  0
    9.2076  -11.4591    0.0000 C   0  0  2  0  0  0  0  0  0  0  0  0
    9.2304  -10.2059    0.0000 C   0  0  0  0  0  0  0  0  0  0  0  0
    9.0189  -12.8725    0.0000 O   0  0  0  0  0  0  0  0  0  0  0  0
   15.5561  -10.0274    0.0000 C   0  0  2  0  0  0  0  0  0  0  0  0
   16.2222  -11.2809    0.0000 C   0  0  1  0  0  0  0  0  0  0  0  0
   11.8057   -7.2726    0.0000 C   0  0  1  0  0  0  0  0  0  0  0  0
   10.7201   -8.2034    0.0000 C   0  0  2  0  0  0  0  0  0  0  0  0
   10.9928   -9.5288    0.0000 O   0  0  0  0  0  0  0  0  0  0  0  0
    8.3920  -11.3673    0.0000 O   0  0  0  0  0  0  0  0  0  0  0  0
    9.4941   -9.7013    0.0000 O   0  0  0  0  0  0  0  0  0  0  0  0
   16.2956   -9.6419    0.0000 O   0  0  0  0  0  0  0  0  0  0  0  0
   14.8487   -9.4365    0.0000 C   0  0  0  0  0  0  0  0  0  0  0  0
   16.9302  -10.9137    0.0000 C   0  0  2  0  0  0  0  0  0  0  0  0
   16.1907  -12.1121    0.0000 O   0  0  0  0  0  0  0  0  0  0  0  0
   10.9928   -7.4246    0.0000 C   0  0  2  0  0  0  0  0  0  0  0  0
   12.2293   -6.3565    0.0000 C   0  0  0  0  0  0  0  0  0  0  0  0
    9.9125   -8.3712    0.0000 O   0  0  0  0  0  0  0  0  0  0  0  0
   16.9826  -10.0877    0.0000 C   0  0  1  0  0  0  0  0  0  0  0  0
   15.1030   -8.7687    0.0000 O   0  0  0  0  0  0  0  0  0  0  0  0
   17.6146  -11.3673    0.0000 O   0  0  0  0  0  0  0  0  0  0  0  0
   10.4290   -6.7979    0.0000 O   0  0  0  0  0  0  0  0  0  0  0  0
   11.7272   -5.8702    0.0000 O   0  0  0  0  0  0  0  0  0  0  0  0
   17.6860   -9.7153    0.0000 O   0  0  0  0  0  0  0  0  0  0  0  0
  1  2  1  0  0  0  0
  1  3  1  6  0  0  0
  1  4  1  0  0  0  0
  2  5  1  0  0  0  0
  2  6  1  1  0  0  0
  7  3  1  6  0  0  0
  4  8  1  0  0  0  0
  4  9  1  1  0  0  0
  5 10  1  0  0  0  0
  6 11  1  0  0  0  0
  7 12  1  0  0  0  0
  7 13  1  0  0  0  0
  8 14  1  6  0  0  0
 10 15  1  6  0  0  0
 16 11  1  6  0  0  0
 12 17  1  0  0  0  0
 13 18  1  0  0  0  0
 13 19  1  6  0  0  0
 20 15  1  6  0  0  0
 16 21  1  0  0  0  0
 16 22  1  0  0  0  0
 17 23  1  0  0  0  0
 17 24  1  1  0  0  0
 18 25  1  1  0  0  0
 20 26  1  0  0  0  0
 20 27  1  0  0  0  0
 21 28  1  0  0  0  0
 22 29  1  0  0  0  0
 22 30  1  6  0  0  0
 23 31  1  6  0  0  0
 24 32  1  0  0  0  0
 26 33  1  0  0  0  0
 26 34  1  1  0  0  0
 27 35  1  0  0  0  0
 27 36  1  1  0  0  0
 28 37  1  0  0  0  0
 28 38  1  1  0  0  0
 29 39  1  1  0  0  0
 33 40  1  0  0  0  0
 34 41  1  0  0  0  0
 35 42  1  6  0  0  0
 37 43  1  6  0  0  0
 38 44  1  0  0  0  0
 40 45  1  6  0  0  0
  8 10  1  0  0  0  0
 18 23  1  0  0  0  0
 29 37  1  0  0  0  0
 35 40  1  0  0  0  0
M  END
> <DATABASE_ID>
HMDB00757

> <DATABASE_NAME>
hmdb

> <SMILES>
OC[C@H]1O[C@H](OC[C@H]2O[C@H](O[C@H]3[C@H](O)[C@@H](O)[C@@H](O)O[C@@H]3CO)[C@H](O)[C@@H](O)[C@@H]2O[C@H]2O[C@H](CO)[C@@H](O)[C@H](O)[C@H]2O)[C@H](O)[C@@H](O)[C@@H]1O

> <INCHI_IDENTIFIER>
InChI=1S/C24H42O21/c25-1-5-9(28)11(30)16(35)22(41-5)39-4-8-20(45-23-17(36)12(31)10(29)6(2-26)42-23)14(33)18(37)24(43-8)44-19-7(3-27)40-21(38)15(34)13(19)32/h5-38H,1-4H2/t5-,6-,7-,8-,9-,10-,11+,12+,13-,14-,15-,16-,17-,18-,19-,20-,21+,22+,23-,24-/m1/s1

> <INCHI_KEY>
BYSGBSNPRWKUQH-UJDJLXLFSA-N

> <FORMULA>
C24H42O21

> <MOLECULAR_WEIGHT>
666.5777

> <EXACT_MASS>
666.221858406

> <JCHEM_ACCEPTOR_COUNT>
21

> <JCHEM_AVERAGE_POLARIZABILITY>
61.29410180504332

> <JCHEM_BIOAVAILABILITY>
0

> <JCHEM_DONOR_COUNT>
14

> <JCHEM_FORMAL_CHARGE>
0

> <JCHEM_GHOSE_FILTER>
0

> <JCHEM_IUPAC>
(2S,3R,4S,5S,6R)-2-{[(2R,3S,4R,5R,6R)-4,5-dihydroxy-6-{[(2R,3S,4R,5R,6S)-4,5,6-trihydroxy-2-(hydroxymethyl)oxan-3-yl]oxy}-3-{[(2R,3R,4S,5S,6R)-3,4,5-trihydroxy-6-(hydroxymethyl)oxan-2-yl]oxy}oxan-2-yl]methoxy}-6-(hydroxymethyl)oxane-3,4,5-triol

> <ALOGPS_LOGP>
-2.67

> <JCHEM_LOGP>
-8.245046155

> <ALOGPS_LOGS>
-0.29

> <JCHEM_MDDR_LIKE_RULE>
1

> <JCHEM_NUMBER_OF_RINGS>
4

> <JCHEM_PHYSIOLOGICAL_CHARGE>
0

> <JCHEM_PKA>
11.869173974378574

> <JCHEM_PKA_STRONGEST_ACIDIC>
11.191977452335088

> <JCHEM_PKA_STRONGEST_BASIC>
-3.6786216252270156

> <JCHEM_POLAR_SURFACE_AREA>
347.83000000000004

> <JCHEM_REFRACTIVITY>
133.16330000000002

> <JCHEM_ROTATABLE_BOND_COUNT>
10

> <JCHEM_RULE_OF_FIVE>
0

> <ALOGPS_SOLUBILITY>
3.43e+02 g/l

> <JCHEM_TRADITIONAL_IUPAC>
glycogen

> <JCHEM_VEBER_RULE>
0

> <HMDB_ID>
HMDB00757

> <GENERIC_NAME>
Glycogen

> <SYNONYMS>
Animal starch; Glycogen; Liver starch; Lyoglycogen; Phytoglycogen

$$$$
