Stigmasterol
  Mrv1572001071617112D          
  Marvin  12070717192D          
 34 37  0  0  1  0            999 V2000
   -2.1733   -0.4151    0.0000 C   0  0  0  0  0  0  0  0  0  0  0  0
   -2.8959   -0.8118    0.0000 C   0  0  0  0  0  0  0  0  0  0  0  0
   -2.8959   -1.6509    0.0000 C   0  0  1  0  0  0  0  0  0  0  0  0
   -2.1733   -2.0631    0.0000 C   0  0  0  0  0  0  0  0  0  0  0  0
   -1.4736   -1.6509    0.0000 C   0  0  0  0  0  0  0  0  0  0  0  0
   -0.7587   -2.0631    0.0000 C   0  0  0  0  0  0  0  0  0  0  0  0
   -1.4736   -0.8118    0.0000 C   0  0  2  0  0  0  0  0  0  0  0  0
   -0.7587    0.3930    0.0000 C   0  0  0  0  0  0  0  0  0  0  0  0
   -0.0279    0.8130    0.0000 C   0  0  0  0  0  0  0  0  0  0  0  0
    0.6718    0.3930    0.0000 C   0  0  1  0  0  0  0  0  0  0  0  0
    0.6718   -0.4151    0.0000 C   0  0  1  0  0  0  0  0  0  0  0  0
    1.4565   -0.6719    0.0000 C   0  0  0  0  0  0  0  0  0  0  0  0
    1.9228   -0.0188    0.0000 C   0  0  0  0  0  0  0  0  0  0  0  0
    1.4565    0.6494    0.0000 C   0  0  2  0  0  0  0  0  0  0  0  0
    0.6718    1.2404    0.0000 C   0  0  0  0  0  0  0  0  0  0  0  0
   -1.4736   -0.0033    0.0000 C   0  0  0  0  0  0  0  0  0  0  0  0
    0.6718   -1.2469    0.0000 H   0  0  0  0  0  0  0  0  0  0  0  0
    2.1796    1.0539    0.0000 H   0  0  0  0  0  0  0  0  0  0  0  0
   -3.6291   -2.0818    0.0000 O   0  0  0  0  0  0  0  0  0  0  0  0
   -0.7587   -0.4151    0.0000 C   0  0  1  0  0  0  0  0  0  0  0  0
   -0.7587   -1.2405    0.0000 H   0  0  0  0  0  0  0  0  0  0  0  0
    0.7421    1.9093    0.0000 C   0  0  0  0  0  0  0  0  0  0  0  0
   -0.0279   -0.8118    0.0000 C   0  0  1  0  0  0  0  0  0  0  0  0
   -0.0279    0.0134    0.0000 H   0  0  0  0  0  0  0  0  0  0  0  0
   -0.0279   -1.6509    0.0000 C   0  0  0  0  0  0  0  0  0  0  0  0
    2.8855    1.4968    0.0000 C   0  0  0  0  0  0  0  0  0  0  0  0
    4.3144    1.4968    0.0000 C   0  0  0  0  0  0  0  0  0  0  0  0
    4.3144    0.6718    0.0000 C   0  0  0  0  0  0  0  0  0  0  0  0
    2.1710    1.9093    0.0000 C   0  0  0  0  0  0  0  0  0  0  0  0
    1.4565    1.4968    0.0000 C   0  0  2  0  0  0  0  0  0  0  0  0
    5.0289    1.9093    0.0000 C   0  0  0  0  0  0  0  0  0  0  0  0
    3.5999    1.9093    0.0000 C   0  0  2  0  0  0  0  0  0  0  0  0
    3.5999    2.7343    0.0000 C   0  0  0  0  0  0  0  0  0  0  0  0
    2.8854    3.1468    0.0000 C   0  0  0  0  0  0  0  0  0  0  0  0
 11 10  1  0  0  0  0
 14 10  1  0  0  0  0
  9 10  1  0  0  0  0
 10 15  1  1  0  0  0
 23 11  1  0  0  0  0
 12 11  1  0  0  0  0
 11 17  1  6  0  0  0
  8 20  1  0  0  0  0
  7 20  1  0  0  0  0
 23 20  1  0  0  0  0
 25 23  1  0  0  0  0
  5  7  1  0  0  0  0
  7 16  1  1  0  0  0
  1  7  1  0  0  0  0
 13 14  1  0  0  0  0
 30 14  1  0  0  0  0
 14 18  1  6  0  0  0
  8  9  1  0  0  0  0
 13 12  1  0  0  0  0
  6 25  1  0  0  0  0
  4  5  1  0  0  0  0
  6  5  2  0  0  0  0
  2  1  1  0  0  0  0
  3  4  1  0  0  0  0
  3  2  1  0  0  0  0
  3 19  1  1  0  0  0
 20 21  1  6  0  0  0
 30 22  1  6  0  0  0
 23 24  1  1  0  0  0
 29 26  2  0  0  0  0
 32 26  1  0  0  0  0
 27 32  1  0  0  0  0
 28 27  1  0  0  0  0
 31 27  1  0  0  0  0
 29 30  1  0  0  0  0
 32 33  1  1  0  0  0
 33 34  1  0  0  0  0
M  END
> <DATABASE_ID>
HMDB00937

> <DATABASE_NAME>
hmdb

> <SMILES>
[H][C@@]1(CC[C@@]2([H])[C@]3([H])CC=C4C[C@@H](O)CC[C@]4(C)[C@@]3([H])CC[C@]12C)[C@H](C)\C=C\[C@@H](CC)C(C)C

> <INCHI_IDENTIFIER>
InChI=1S/C29H48O/c1-7-21(19(2)3)9-8-20(4)25-12-13-26-24-11-10-22-18-23(30)14-16-28(22,5)27(24)15-17-29(25,26)6/h8-10,19-21,23-27,30H,7,11-18H2,1-6H3/b9-8+/t20-,21-,23+,24+,25-,26+,27+,28+,29-/m1/s1

> <INCHI_KEY>
HCXVJBMSMIARIN-PHZDYDNGSA-N

> <FORMULA>
C29H48O

> <MOLECULAR_WEIGHT>
412.702

> <EXACT_MASS>
412.370516166

> <JCHEM_ACCEPTOR_COUNT>
1

> <JCHEM_ATOM_COUNT>
78

> <JCHEM_AVERAGE_POLARIZABILITY>
53.55626925501906

> <JCHEM_BIOAVAILABILITY>
1

> <JCHEM_DONOR_COUNT>
1

> <JCHEM_FORMAL_CHARGE>
0

> <JCHEM_GHOSE_FILTER>
0

> <JCHEM_IUPAC>
(1S,2R,5S,10S,11S,14R,15R)-14-[(2R,3E,5S)-5-ethyl-6-methylhept-3-en-2-yl]-2,15-dimethyltetracyclo[8.7.0.0²,⁷.0¹¹,¹⁵]heptadec-7-en-5-ol

> <ALOGPS_LOGP>
6.95

> <JCHEM_LOGP>
7.482555135333334

> <ALOGPS_LOGS>
-7.18

> <JCHEM_MDDR_LIKE_RULE>
0

> <JCHEM_NUMBER_OF_RINGS>
4

> <JCHEM_PHYSIOLOGICAL_CHARGE>
0

> <JCHEM_PKA_STRONGEST_ACIDIC>
18.20428950550382

> <JCHEM_PKA_STRONGEST_BASIC>
-1.3972437702926293

> <JCHEM_POLAR_SURFACE_AREA>
20.23

> <JCHEM_REFRACTIVITY>
130.88269999999997

> <JCHEM_ROTATABLE_BOND_COUNT>
5

> <JCHEM_RULE_OF_FIVE>
0

> <ALOGPS_SOLUBILITY>
2.73e-05 g/l

> <JCHEM_TRADITIONAL_IUPAC>
stigmasterol

> <JCHEM_VEBER_RULE>
1

> <HMDB_ID>
HMDB00937

> <GENERIC_NAME>
Stigmasterol

> <SYNONYMS>
(24aFH)-stigmasta-5,22t-dien-3b-ol; (24S)-5,22-stigmastadien-3b-ol; (24x)-ethylcholesta-5,22-dien-3b-ol; (24xH)-stigmasta-5,22t-dien-3b-ol; (3b,22E)-stigmasta-5,22-dien-3-ol; 17-(4-Ethyl-1,5-dimethyl-hex-2-enyl)-10,13-dimethyl-2,3,4,7,8,9,10,11,12,13,14,15,16,17-tetradecahydro-1H-cyclopenta[a]phenanthren-3-ol; 24aFH-stigmasta-5,22t-dien-3b-ol; 24x-24-Ethylcholest-5,22-dien-3b-ol; b-Stigmasterol; beta-Stigmasterol; Poriferasterol; Rac-(24xH)-stigmasta-5,22t-dien-3b-ol; Stigmasta-5,22-dien-3-b-ol; Stigmasta-5,22-dien-3-beta-ol; Stigmasta-5,22t-dien-3b-ol; Stigmasterin

$$$$
