
  Mrv0541 02231219302D          

  8  7  0  0  0  0            999 V2000
   16.6980   -8.5642    0.0000 O   0  0  0  0  0  0  0  0  0  0  0  0
   15.9835   -7.3267    0.0000 O   0  0  0  0  0  0  0  0  0  0  0  0
   14.5546   -8.1517    0.0000 N   0  0  0  0  0  0  0  0  0  0  0  0
   14.5546  -10.6267    0.0000 N   0  0  0  0  0  0  0  0  0  0  0  0
   15.2691   -9.3892    0.0000 C   0  0  0  0  0  0  0  0  0  0  0  0
   15.2691   -8.5642    0.0000 C   0  0  0  0  0  0  0  0  0  0  0  0
   14.5546   -9.8017    0.0000 C   0  0  0  0  0  0  0  0  0  0  0  0
   15.9835   -8.1517    0.0000 C   0  0  0  0  0  0  0  0  0  0  0  0
  1  8  1  0  0  0  0
  2  8  2  0  0  0  0
  3  6  1  0  0  0  0
  4  7  1  0  0  0  0
  5  6  1  0  0  0  0
  5  7  1  0  0  0  0
  6  8  1  0  0  0  0
M  END
> <DATABASE_ID>
HMDB02362

> <DATABASE_NAME>
hmdb

> <SMILES>
NCCC(N)C(O)=O

> <INCHI_IDENTIFIER>
InChI=1S/C4H10N2O2/c5-2-1-3(6)4(7)8/h3H,1-2,5-6H2,(H,7,8)

> <INCHI_KEY>
OGNSCSPNOLGXSM-UHFFFAOYSA-N

> <FORMULA>
C4H10N2O2

> <MOLECULAR_WEIGHT>
118.1344

> <EXACT_MASS>
118.074227574

> <JCHEM_ACCEPTOR_COUNT>
4

> <JCHEM_AVERAGE_POLARIZABILITY>
11.790777046983148

> <JCHEM_BIOAVAILABILITY>
1

> <JCHEM_DONOR_COUNT>
3

> <JCHEM_FORMAL_CHARGE>
0

> <JCHEM_GHOSE_FILTER>
0

> <JCHEM_IUPAC>
2,4-diaminobutanoic acid

> <ALOGPS_LOGP>
-3.66

> <JCHEM_LOGP>
-4.025544175769902

> <ALOGPS_LOGS>
0.36

> <JCHEM_MDDR_LIKE_RULE>
0

> <JCHEM_NUMBER_OF_RINGS>
0

> <JCHEM_PHYSIOLOGICAL_CHARGE>
1

> <JCHEM_PKA_STRONGEST_ACIDIC>
2.5466043382409564

> <JCHEM_PKA_STRONGEST_BASIC>
10.25230176518907

> <JCHEM_POLAR_SURFACE_AREA>
89.33999999999999

> <JCHEM_REFRACTIVITY>
28.5639

> <JCHEM_ROTATABLE_BOND_COUNT>
3

> <JCHEM_RULE_OF_FIVE>
1

> <ALOGPS_SOLUBILITY>
2.70e+02 g/l

> <JCHEM_TRADITIONAL_IUPAC>
l-2,4-diaminobutyric acid

> <JCHEM_VEBER_RULE>
0

> <HMDB_ID>
HMDB02362

> <GENERIC_NAME>
2,4-Diaminobutyric acid

> <SYNONYMS>
(RS)-2,4-Diaminobutyric acid; 2,4-Diamino-butanoate; 2,4-Diamino-butanoic acid; 2,4-Diamino-butyric acid; 2,4-Diamino-N-butyric acid; 2,4-Diaminobutanoate; 2,4-Diaminobutanoic acid; 2,4-Diaminobutyrate; alpha,gamma-Diaminobutyrate; alpha,gamma-Diaminobutyric acid; DL-2,4-Diamino-N-butyric acid; DL-2,4-Diaminobutanoate; DL-2,4-Diaminobutanoic acid; DL-2,4-Diaminobutyric acid; DL-alpha,gamma-Diaminobutyric acid

$$$$
