
  Mrv0541 02231219442D          

 12 13  0  0  0  0            999 V2000
   13.2271  -14.8677    0.0000 O   0  0  0  0  0  0  0  0  0  0  0  0
   11.9073  -17.9340    0.0000 N   0  0  0  0  0  0  0  0  0  0  0  0
   12.9708  -15.6518    0.0000 C   0  0  0  0  0  0  0  0  0  0  0  0
   12.1635  -15.8220    0.0000 C   0  0  0  0  0  0  0  0  0  0  0  0
   11.1267  -17.6826    0.0000 C   0  0  0  0  0  0  0  0  0  0  0  0
   11.9073  -16.6062    0.0000 C   0  0  0  0  0  0  0  0  0  0  0  0
   11.1267  -16.8576    0.0000 C   0  0  0  0  0  0  0  0  0  0  0  0
   12.3888  -17.2701    0.0000 C   0  0  0  0  0  0  0  0  0  0  0  0
   10.4121  -18.0951    0.0000 C   0  0  0  0  0  0  0  0  0  0  0  0
   10.4121  -16.4451    0.0000 C   0  0  0  0  0  0  0  0  0  0  0  0
    9.6976  -17.6826    0.0000 C   0  0  0  0  0  0  0  0  0  0  0  0
    9.6976  -16.8576    0.0000 C   0  0  0  0  0  0  0  0  0  0  0  0
  1  3  1  0  0  0  0
  2  5  1  0  0  0  0
  2  8  1  0  0  0  0
  3  4  1  0  0  0  0
  4  6  1  0  0  0  0
  5  7  1  0  0  0  0
  5  9  2  0  0  0  0
  6  7  1  0  0  0  0
  6  8  2  0  0  0  0
  7 10  2  0  0  0  0
  9 11  1  0  0  0  0
 10 12  1  0  0  0  0
 11 12  2  0  0  0  0
M  END
> <DATABASE_ID>
HMDB03447

> <DATABASE_NAME>
hmdb

> <SMILES>
OCCC1=CNC2=CC=CC=C12

> <INCHI_IDENTIFIER>
InChI=1S/C10H11NO/c12-6-5-8-7-11-10-4-2-1-3-9(8)10/h1-4,7,11-12H,5-6H2

> <INCHI_KEY>
MBBOMCVGYCRMEA-UHFFFAOYSA-N

> <FORMULA>
C10H11NO

> <MOLECULAR_WEIGHT>
161.2004

> <EXACT_MASS>
161.084063979

> <JCHEM_ACCEPTOR_COUNT>
1

> <JCHEM_AVERAGE_POLARIZABILITY>
17.8752650206282

> <JCHEM_BIOAVAILABILITY>
1

> <JCHEM_DONOR_COUNT>
2

> <JCHEM_FORMAL_CHARGE>
0

> <JCHEM_GHOSE_FILTER>
1

> <JCHEM_IUPAC>
2-(1H-indol-3-yl)ethan-1-ol

> <ALOGPS_LOGP>
1.82

> <JCHEM_LOGP>
1.5933192466666666

> <ALOGPS_LOGS>
-2.00

> <JCHEM_MDDR_LIKE_RULE>
0

> <JCHEM_NUMBER_OF_RINGS>
2

> <JCHEM_PHYSIOLOGICAL_CHARGE>
0

> <JCHEM_PKA>
17.392512752772014

> <JCHEM_PKA_STRONGEST_ACIDIC>
15.796075232386734

> <JCHEM_PKA_STRONGEST_BASIC>
-2.4393148808629768

> <JCHEM_POLAR_SURFACE_AREA>
36.019999999999996

> <JCHEM_REFRACTIVITY>
48.71540000000002

> <JCHEM_ROTATABLE_BOND_COUNT>
2

> <JCHEM_RULE_OF_FIVE>
1

> <ALOGPS_SOLUBILITY>
1.61e+00 g/l

> <JCHEM_TRADITIONAL_IUPAC>
tryptophol

> <JCHEM_VEBER_RULE>
1

> <HMDB_ID>
HMDB03447

> <GENERIC_NAME>
Tryptophanol

> <SYNONYMS>
1H-Indole-3-ethanol; 1H-Indolyl-3-ethanol; 2-(1H-Indol-3-yl)ethanol; 2-(3-Indolyl)ethanol; 2-(3-Indolylethanol; 3-(2-Hydroxyethyl)indole; 3-(b-Hydroxyethyl)indole; 3-(beta-Hydroxyethyl)indole; 3-Indoleethanol; 3-Indolylethanol; b-(3-Indole)ethanol; beta-(3-Indole)ethanol; beta-Indol-3-ylethanol; Dl-Tryptophanol; IEA; Indole ethanol; Indole-3-ethanol; Indoleethanol; Tryptophol

$$$$
