
  Mrv0541 02231219202D          

  8  8  0  0  0  0            999 V2000
   15.2594  -11.5121    0.0000 O   0  0  0  0  0  0  0  0  0  0  0  0
   14.5448  -12.7496    0.0000 C   0  0  0  0  0  0  0  0  0  0  0  0
   15.2594  -12.3370    0.0000 C   0  0  0  0  0  0  0  0  0  0  0  0
   14.5448  -13.5746    0.0000 C   0  0  0  0  0  0  0  0  0  0  0  0
   13.8302  -12.3370    0.0000 C   0  0  0  0  0  0  0  0  0  0  0  0
   15.9737  -12.7496    0.0000 C   0  0  0  0  0  0  0  0  0  0  0  0
   15.2594  -13.9870    0.0000 C   0  0  0  0  0  0  0  0  0  0  0  0
   15.9737  -13.5746    0.0000 C   0  0  0  0  0  0  0  0  0  0  0  0
  1  3  1  0  0  0  0
  2  3  1  0  0  0  0
  2  4  2  0  0  0  0
  2  5  1  0  0  0  0
  3  6  2  0  0  0  0
  4  7  1  0  0  0  0
  6  8  1  0  0  0  0
  7  8  2  0  0  0  0
M  END
> <DATABASE_ID>
HMDB02055

> <DATABASE_NAME>
hmdb

> <SMILES>
CC1=CC=CC=C1O

> <INCHI_IDENTIFIER>
InChI=1S/C7H8O/c1-6-4-2-3-5-7(6)8/h2-5,8H,1H3

> <INCHI_KEY>
QWVGKYWNOKOFNN-UHFFFAOYSA-N

> <FORMULA>
C7H8O

> <MOLECULAR_WEIGHT>
108.1378

> <EXACT_MASS>
108.057514878

> <JCHEM_ACCEPTOR_COUNT>
1

> <JCHEM_AVERAGE_POLARIZABILITY>
11.83178638692406

> <JCHEM_BIOAVAILABILITY>
1

> <JCHEM_DONOR_COUNT>
1

> <JCHEM_FORMAL_CHARGE>
0

> <JCHEM_GHOSE_FILTER>
0

> <JCHEM_IUPAC>
2-methylphenol

> <ALOGPS_LOGP>
1.89

> <JCHEM_LOGP>
2.1831018836666667

> <ALOGPS_LOGS>
-0.59

> <JCHEM_MDDR_LIKE_RULE>
0

> <JCHEM_NUMBER_OF_RINGS>
1

> <JCHEM_PHYSIOLOGICAL_CHARGE>
0

> <JCHEM_PKA_STRONGEST_ACIDIC>
10.37449852812061

> <JCHEM_PKA_STRONGEST_BASIC>
-5.462420484988653

> <JCHEM_POLAR_SURFACE_AREA>
20.23

> <JCHEM_REFRACTIVITY>
33.0801

> <JCHEM_ROTATABLE_BOND_COUNT>
0

> <JCHEM_RULE_OF_FIVE>
1

> <ALOGPS_SOLUBILITY>
2.75e+01 g/l

> <JCHEM_TRADITIONAL_IUPAC>
o-cresol

> <JCHEM_VEBER_RULE>
1

> <HMDB_ID>
HMDB02055

> <GENERIC_NAME>
o-Cresol

> <SYNONYMS>
1-Hydroxy-2-methylbenzene; 1-Methyl-2-hydroxybenzene; 2-Cresol; 2-Hydroxytoluene; 2-Methylphenol; O-Cresylic acid; O-Hydroxytoluene; O-Methylphenol; O-Methylphenylol; O-Oxytoluene; O-Toluol

$$$$
