
  Mrv0541 02231214282D          

  5  4  0  0  0  0            999 V2000
    2.0930    0.6188    0.0000 O   0  0  0  0  0  0  0  0  0  0  0  0
    2.8075   -0.6188    0.0000 O   0  0  0  0  0  0  0  0  0  0  0  0
    4.2365    0.2063    0.0000 N   0  0  0  0  0  0  0  0  0  0  0  0
    3.5220    0.6188    0.0000 C   0  0  0  0  0  0  0  0  0  0  0  0
    2.8075    0.2063    0.0000 C   0  0  0  0  0  0  0  0  0  0  0  0
  1  5  1  0  0  0  0
  2  5  2  0  0  0  0
  3  4  1  0  0  0  0
  4  5  1  0  0  0  0
M  END
> <DATABASE_ID>
HMDB00123

> <DATABASE_NAME>
hmdb

> <SMILES>
NCC(O)=O

> <INCHI_IDENTIFIER>
InChI=1S/C2H5NO2/c3-1-2(4)5/h1,3H2,(H,4,5)

> <INCHI_KEY>
DHMQDGOQFOQNFH-UHFFFAOYSA-N

> <FORMULA>
C2H5NO2

> <MOLECULAR_WEIGHT>
75.0666

> <EXACT_MASS>
75.032028409

> <JCHEM_ACCEPTOR_COUNT>
3

> <JCHEM_AVERAGE_POLARIZABILITY>
6.647019971293105

> <JCHEM_BIOAVAILABILITY>
1

> <JCHEM_DONOR_COUNT>
2

> <JCHEM_FORMAL_CHARGE>
0

> <JCHEM_GHOSE_FILTER>
0

> <JCHEM_IUPAC>
2-aminoacetic acid

> <ALOGPS_LOGP>
-3.34

> <JCHEM_LOGP>
-3.409459573132419

> <ALOGPS_LOGS>
0.87

> <JCHEM_MDDR_LIKE_RULE>
0

> <JCHEM_NUMBER_OF_RINGS>
0

> <JCHEM_PHYSIOLOGICAL_CHARGE>
0

> <JCHEM_PKA_STRONGEST_ACIDIC>
2.3074568824727404

> <JCHEM_PKA_STRONGEST_BASIC>
9.240341660583645

> <JCHEM_POLAR_SURFACE_AREA>
63.31999999999999

> <JCHEM_REFRACTIVITY>
16.0034

> <JCHEM_ROTATABLE_BOND_COUNT>
1

> <JCHEM_RULE_OF_FIVE>
1

> <ALOGPS_SOLUBILITY>
5.52e+02 g/l

> <JCHEM_TRADITIONAL_IUPAC>
glycine

> <JCHEM_VEBER_RULE>
0

> <HMDB_ID>
HMDB00123

> <GENERIC_NAME>
Glycine

> <SYNONYMS>
2-Aminoacetate; 2-Aminoacetic acid; Aciport; Amino-Acetate; Amino-Acetic acid; Aminoacetate; Aminoacetic acid; Aminoethanoate; Aminoethanoic acid; Glicoamin; Glycocoll; Glycolixir; Glycosthene; Gyn-Hydralin; Padil

$$$$
