
  Mrv0541 02231215562D          

 15 15  0  0  1  0            999 V2000
   -0.7145    1.2375    0.0000 N   0  0  0  0  0  0  0  0  0  0  0  0
   -0.7145    0.4125    0.0000 C   0  0  1  0  0  0  0  0  0  0  0  0
   -1.4289    0.0000    0.0000 C   0  0  0  0  0  0  0  0  0  0  0  0
   -2.1434    0.4125    0.0000 C   0  0  0  0  0  0  0  0  0  0  0  0
   -2.1434    1.2375    0.0000 O   0  0  0  0  0  0  0  0  0  0  0  0
   -2.8579    0.0000    0.0000 C   0  0  0  0  0  0  0  0  0  0  0  0
   -2.8579   -0.8250    0.0000 C   0  0  0  0  0  0  0  0  0  0  0  0
   -3.5724   -1.2375    0.0000 C   0  0  0  0  0  0  0  0  0  0  0  0
   -4.2868   -0.8250    0.0000 C   0  0  0  0  0  0  0  0  0  0  0  0
   -4.2868    0.0000    0.0000 C   0  0  0  0  0  0  0  0  0  0  0  0
   -3.5724    0.4125    0.0000 C   0  0  0  0  0  0  0  0  0  0  0  0
   -3.5724    1.2375    0.0000 N   0  0  0  0  0  0  0  0  0  0  0  0
    0.0000    0.0000    0.0000 C   0  0  0  0  0  0  0  0  0  0  0  0
    0.7145    0.4125    0.0000 O   0  0  0  0  0  0  0  0  0  0  0  0
    0.0000   -0.8250    0.0000 O   0  0  0  0  0  0  0  0  0  0  0  0
  2  1  1  6  0  0  0
  2  3  1  0  0  0  0
  3  4  1  0  0  0  0
  4  5  2  0  0  0  0
  4  6  1  0  0  0  0
  6  7  2  0  0  0  0
  7  8  1  0  0  0  0
  8  9  2  0  0  0  0
  9 10  1  0  0  0  0
 10 11  2  0  0  0  0
  6 11  1  0  0  0  0
 11 12  1  0  0  0  0
  2 13  1  0  0  0  0
 13 14  1  0  0  0  0
 13 15  2  0  0  0  0
M  END
> <DATABASE_ID>
HMDB00684

> <DATABASE_NAME>
hmdb

> <SMILES>
N[C@@H](CC(=O)C1=CC=CC=C1N)C(O)=O

> <INCHI_IDENTIFIER>
InChI=1S/C10H12N2O3/c11-7-4-2-1-3-6(7)9(13)5-8(12)10(14)15/h1-4,8H,5,11-12H2,(H,14,15)/t8-/m0/s1

> <INCHI_KEY>
YGPSJZOEDVAXAB-QMMMGPOBSA-N

> <FORMULA>
C10H12N2O3

> <MOLECULAR_WEIGHT>
208.2139

> <EXACT_MASS>
208.08479226

> <JCHEM_ACCEPTOR_COUNT>
5

> <JCHEM_AVERAGE_POLARIZABILITY>
20.589188360189617

> <JCHEM_BIOAVAILABILITY>
1

> <JCHEM_DONOR_COUNT>
3

> <JCHEM_FORMAL_CHARGE>
0

> <JCHEM_GHOSE_FILTER>
0

> <JCHEM_IUPAC>
(2S)-2-amino-4-(2-aminophenyl)-4-oxobutanoic acid

> <ALOGPS_LOGP>
-1.93

> <JCHEM_LOGP>
-1.9081918809836254

> <ALOGPS_LOGS>
-2.10

> <JCHEM_MDDR_LIKE_RULE>
0

> <JCHEM_NUMBER_OF_RINGS>
1

> <JCHEM_PHYSIOLOGICAL_CHARGE>
0

> <JCHEM_PKA>
16.06926978291992

> <JCHEM_PKA_STRONGEST_ACIDIC>
1.193089749657625

> <JCHEM_PKA_STRONGEST_BASIC>
8.96449885088756

> <JCHEM_POLAR_SURFACE_AREA>
106.41

> <JCHEM_REFRACTIVITY>
55.05020000000002

> <JCHEM_ROTATABLE_BOND_COUNT>
4

> <JCHEM_RULE_OF_FIVE>
1

> <ALOGPS_SOLUBILITY>
1.67e+00 g/l

> <JCHEM_TRADITIONAL_IUPAC>
L-kynurenine

> <JCHEM_VEBER_RULE>
0

> <HMDB_ID>
HMDB00684

> <GENERIC_NAME>
L-Kynurenine

> <SYNONYMS>
(alphaS)-alpha,2-diamino-3-hydroxy-gamma-oxo-Benzenebutanoate; (alphaS)-alpha,2-diamino-3-hydroxy-gamma-oxo-Benzenebutanoic acid; (S)-alpha,2-diamino-3-hydroxy-gamma-oxo-Benzenebutanoate; (S)-alpha,2-diamino-3-hydroxy-gamma-oxo-Benzenebutanoic acid; 3-(3-Hydroxyanthraniloyl)-L-alanine; 3-Anthraniloyl-Alanine; 3-Anthraniloyl-L-alanine; 3-Anthraniloylalanine; 3-Hydroxy-L-kynurenine; alpha,2-Diamino-gamma-oxo-Benzenebutanoate; alpha,2-Diamino-gamma-oxo-Benzenebutanoic acid; Dl-Kynurenine; DL-Kynureninefree base; Kynurenin; Kynurenine; Quinurenine

$$$$
