
  Mrv0541 02231218182D          

 36 39  0  0  1  0            999 V2000
   -1.0202   -0.8633    0.0000 C   0  0  0  0  0  0  0  0  0  0  0  0
   -0.2990   -0.4409    0.0000 C   0  0  0  0  0  0  0  0  0  0  0  0
   -1.7378   -0.4484    0.0000 C   0  0  0  0  0  0  0  0  0  0  0  0
   -1.0165   -1.6930    0.0000 C   0  0  1  0  0  0  0  0  0  0  0  0
   -0.2952    0.3924    0.0000 C   0  0  0  0  0  0  0  0  0  0  0  0
    1.1436   -0.4484    0.0000 C   0  0  0  0  0  0  0  0  0  0  0  0
   -2.4516   -0.8670    0.0000 C   0  0  0  0  0  0  0  0  0  0  0  0
   -1.7452    0.3811    0.0000 C   0  0  0  0  0  0  0  0  0  0  0  0
   -1.7340   -2.1002    0.0000 C   0  0  0  0  0  0  0  0  0  0  0  0
   -0.3101   -2.1002    0.0000 O   0  0  0  0  0  0  0  0  0  0  0  0
    0.4260    0.8072    0.0000 C   0  0  0  0  0  0  0  0  0  0  0  0
   -1.0239    0.8035    0.0000 C   0  0  2  0  0  0  0  0  0  0  0  0
   -0.3214    1.3453    0.0000 C   0  0  0  0  0  0  0  0  0  0  0  0
    1.1436    0.3849    0.0000 C   0  0  0  0  0  0  0  0  0  0  0  0
   -2.4516   -1.6892    0.0000 C   0  0  2  0  0  0  0  0  0  0  0  0
   -3.1653   -0.4597    0.0000 C   0  0  0  0  0  0  0  0  0  0  0  0
   -2.4553   -0.0560    0.0000 C   0  0  0  0  0  0  0  0  0  0  0  0
    0.4298    1.6182    0.0000 C   0  0  0  0  0  0  0  0  0  0  0  0
   -1.6070    1.3828    0.0000 O   0  0  0  0  0  0  0  0  0  0  0  0
   -3.1653   -2.1040    0.0000 C   0  0  0  0  0  0  0  0  0  0  0  0
   -3.8679   -0.8670    0.0000 C   0  0  0  0  0  0  0  0  0  0  0  0
    1.1323    2.0255    0.0000 C   0  0  0  0  0  0  0  0  0  0  0  0
   -0.2728    2.0292    0.0000 C   0  0  0  0  0  0  0  0  0  0  0  0
   -3.8679   -1.6892    0.0000 C   0  0  1  0  0  0  0  0  0  0  0  0
    1.8349    1.6145    0.0000 C   0  0  0  0  0  0  0  0  0  0  0  0
   -4.5743   -2.0927    0.0000 O   0  0  0  0  0  0  0  0  0  0  0  0
    2.5412    2.0181    0.0000 C   0  0  0  0  0  0  0  0  0  0  0  0
    3.2439    1.6107    0.0000 N   0  0  0  0  0  0  0  0  0  0  0  0
    2.5450    2.8327    0.0000 O   0  0  0  0  0  0  0  0  0  0  0  0
    3.2402    0.7960    0.0000 C   0  0  0  0  0  0  0  0  0  0  0  0
    3.9426    0.3886    0.0000 C   0  0  0  0  0  0  0  0  0  0  0  0
    3.9389   -0.4260    0.0000 S   0  0  0  0  0  0  0  0  0  0  0  0
    3.1279   -0.4185    0.0000 O   0  0  0  0  0  0  0  0  0  0  0  0
    3.9389   -1.2332    0.0000 O   0  0  0  0  0  0  0  0  0  0  0  0
    4.7536   -0.4335    0.0000 O   0  0  0  0  0  0  0  0  0  0  0  0
   -2.4553   -2.5039    0.0000 H   0  0  0  0  0  0  0  0  0  0  0  0
  1  2  1  0  0  0  0
  1  3  1  0  0  0  0
  1  4  1  0  0  0  0
  2  5  1  0  0  0  0
  2  6  1  0  0  0  0
  3  7  1  0  0  0  0
  3  8  1  0  0  0  0
  4  9  1  0  0  0  0
  4 10  1  6  0  0  0
  5 11  1  0  0  0  0
  5 12  1  0  0  0  0
  5 13  1  0  0  0  0
  6 14  1  0  0  0  0
  7 15  1  0  0  0  0
  7 16  1  0  0  0  0
  7 17  1  0  0  0  0
 11 18  1  0  0  0  0
 12 19  1  6  0  0  0
 15 20  1  0  0  0  0
 16 21  1  0  0  0  0
 18 22  1  0  0  0  0
 18 23  1  0  0  0  0
 20 24  1  0  0  0  0
 22 25  1  0  0  0  0
 24 26  1  6  0  0  0
 25 27  1  0  0  0  0
 27 28  1  0  0  0  0
 27 29  2  0  0  0  0
 28 30  1  0  0  0  0
 30 31  1  0  0  0  0
 31 32  1  0  0  0  0
 32 33  1  0  0  0  0
 32 34  2  0  0  0  0
 32 35  2  0  0  0  0
  8 12  1  0  0  0  0
  9 15  1  0  0  0  0
 11 14  1  0  0  0  0
 21 24  1  0  0  0  0
 15 36  1  1  0  0  0
M  END
> <DATABASE_ID>
HMDB00036

> <DATABASE_NAME>
hmdb

> <SMILES>
[H][C@@]12C[C@H](O)CCC1(C)C1C[C@H](O)C3(C)C(CCC3C1[C@H](O)C2)C(C)CCC(=O)NCCS(O)(=O)=O

> <INCHI_IDENTIFIER>
InChI=1S/C26H45NO7S/c1-15(4-7-23(31)27-10-11-35(32,33)34)18-5-6-19-24-20(14-22(30)26(18,19)3)25(2)9-8-17(28)12-16(25)13-21(24)29/h15-22,24,28-30H,4-14H2,1-3H3,(H,27,31)(H,32,33,34)/t15?,16-,17+,18?,19?,20?,21+,22-,24?,25?,26?/m0/s1

> <INCHI_KEY>
WBWWGRHZICKQGZ-BKXUXKPJSA-N

> <FORMULA>
C26H45NO7S

> <MOLECULAR_WEIGHT>
515.703

> <EXACT_MASS>
515.291673489

> <JCHEM_ACCEPTOR_COUNT>
7

> <JCHEM_AVERAGE_POLARIZABILITY>
56.719928821577845

> <JCHEM_BIOAVAILABILITY>
1

> <JCHEM_DONOR_COUNT>
5

> <JCHEM_FORMAL_CHARGE>
0

> <JCHEM_GHOSE_FILTER>
0

> <JCHEM_IUPAC>
2-{4-[(5R,7S,9R,16S)-5,9,16-trihydroxy-2,15-dimethyltetracyclo[8.7.0.0²,⁷.0¹¹,¹⁵]heptadecan-14-yl]pentanamido}ethane-1-sulfonic acid

> <ALOGPS_LOGP>
0.79

> <JCHEM_LOGP>
-0.5334110425978472

> <ALOGPS_LOGS>
-3.83

> <JCHEM_MDDR_LIKE_RULE>
1

> <JCHEM_NUMBER_OF_RINGS>
4

> <JCHEM_PHYSIOLOGICAL_CHARGE>
-1

> <JCHEM_PKA>
15.402104140115227

> <JCHEM_PKA_STRONGEST_ACIDIC>
-1.0602117736208072

> <JCHEM_PKA_STRONGEST_BASIC>
0.2799648910129974

> <JCHEM_POLAR_SURFACE_AREA>
144.16

> <JCHEM_REFRACTIVITY>
132.19449999999998

> <JCHEM_ROTATABLE_BOND_COUNT>
7

> <JCHEM_RULE_OF_FIVE>
0

> <ALOGPS_SOLUBILITY>
7.71e-02 g/l

> <JCHEM_TRADITIONAL_IUPAC>
2-{4-[(5R,7S,9R,16S)-5,9,16-trihydroxy-2,15-dimethyltetracyclo[8.7.0.0²,⁷.0¹¹,¹⁵]heptadecan-14-yl]pentanamido}ethanesulfonic acid

> <JCHEM_VEBER_RULE>
0

> <HMDB_ID>
HMDB00036

> <GENERIC_NAME>
Taurocholic acid

> <SYNONYMS>
3a,7a,12a-Trihydroxy-5b-cholanic acid-24-taurine; Cholaic acid; Cholic acid taurine conjugate; Cholyltaurine; N-Choloyl-Taurine; N-Choloyltaurine; Taurocholate

$$$$
