
  Mrv0541 02231218512D          

 18 19  0  0  1  0            999 V2000
   10.3096   -8.5828    0.0000 C   0  0  1  0  0  0  0  0  0  0  0  0
   10.9856   -8.0972    0.0000 O   0  0  0  0  0  0  0  0  0  0  0  0
   10.5600   -9.3690    0.0000 C   0  0  2  0  0  0  0  0  0  0  0  0
   11.6465   -8.5828    0.0000 C   0  0  2  0  0  0  0  0  0  0  0  0
   11.3862   -9.3690    0.0000 C   0  0  2  0  0  0  0  0  0  0  0  0
   11.6215   -7.3961    0.0000 N   0  0  0  0  0  0  0  0  0  0  0  0
   11.8718  -10.0450    0.0000 O   0  0  0  0  0  0  0  0  0  0  0  0
   10.0843  -10.0349    0.0000 O   0  0  0  0  0  0  0  0  0  0  0  0
    9.5235   -8.3325    0.0000 C   0  0  0  0  0  0  0  0  0  0  0  0
    8.9126   -8.8833    0.0000 O   0  0  0  0  0  0  0  0  0  0  0  0
   10.9204   -7.0106    0.0000 C   0  0  0  0  0  0  0  0  0  0  0  0
   10.9204   -6.2245    0.0000 N   0  0  0  0  0  0  0  0  0  0  0  0
   12.3075   -7.0006    0.0000 C   0  0  0  0  0  0  0  0  0  0  0  0
   12.3075   -6.2245    0.0000 C   0  0  0  0  0  0  0  0  0  0  0  0
   11.6215   -5.8239    0.0000 C   0  0  0  0  0  0  0  0  0  0  0  0
   10.2495   -7.4213    0.0000 O   0  0  0  0  0  0  0  0  0  0  0  0
   11.6215   -5.0378    0.0000 N   0  0  0  0  0  0  0  0  0  0  0  0
   13.0369   -5.7664    0.0000 C   0  0  0  0  0  0  0  0  0  0  0  0
  2  1  1  0  0  0  0
  3  1  1  0  0  0  0
  1  9  1  1  0  0  0
  4  2  1  0  0  0  0
  5  3  1  0  0  0  0
  3  8  1  6  0  0  0
  5  4  1  0  0  0  0
  4  6  1  1  0  0  0
  5  7  1  6  0  0  0
 11  6  1  0  0  0  0
 13  6  1  0  0  0  0
 10  9  1  0  0  0  0
 12 11  1  0  0  0  0
 16 11  2  0  0  0  0
 15 12  2  0  0  0  0
 14 13  2  0  0  0  0
 15 14  1  0  0  0  0
 17 15  1  0  0  0  0
 18 14  1  0  0  0  0
M  END
> <DATABASE_ID>
HMDB00982

> <DATABASE_NAME>
hmdb

> <SMILES>
CC1=CN([C@@H]2O[C@H](CO)[C@@H](O)[C@H]2O)C(=O)N=C1N

> <INCHI_IDENTIFIER>
InChI=1S/C10H15N3O5/c1-4-2-13(10(17)12-8(4)11)9-7(16)6(15)5(3-14)18-9/h2,5-7,9,14-16H,3H2,1H3,(H2,11,12,17)/t5-,6-,7-,9-/m1/s1

> <INCHI_KEY>
ZAYHVCMSTBRABG-JXOAFFINSA-N

> <FORMULA>
C10H15N3O5

> <MOLECULAR_WEIGHT>
257.2432

> <EXACT_MASS>
257.101170605

> <JCHEM_ACCEPTOR_COUNT>
7

> <JCHEM_AVERAGE_POLARIZABILITY>
24.537597480023866

> <JCHEM_BIOAVAILABILITY>
1

> <JCHEM_DONOR_COUNT>
4

> <JCHEM_FORMAL_CHARGE>
0

> <JCHEM_GHOSE_FILTER>
0

> <JCHEM_IUPAC>
4-amino-1-[(2R,3R,4S,5R)-3,4-dihydroxy-5-(hydroxymethyl)oxolan-2-yl]-5-methyl-1,2-dihydropyrimidin-2-one

> <ALOGPS_LOGP>
-2.17

> <JCHEM_LOGP>
-2.4019667949999994

> <ALOGPS_LOGS>
-1.09

> <JCHEM_MDDR_LIKE_RULE>
0

> <JCHEM_NUMBER_OF_RINGS>
2

> <JCHEM_PHYSIOLOGICAL_CHARGE>
0

> <JCHEM_PKA>
13.933686325053852

> <JCHEM_PKA_STRONGEST_ACIDIC>
12.55323072000284

> <JCHEM_PKA_STRONGEST_BASIC>
-0.12011890903386535

> <JCHEM_POLAR_SURFACE_AREA>
128.61

> <JCHEM_REFRACTIVITY>
58.9019

> <JCHEM_ROTATABLE_BOND_COUNT>
2

> <JCHEM_RULE_OF_FIVE>
1

> <ALOGPS_SOLUBILITY>
2.08e+01 g/l

> <JCHEM_TRADITIONAL_IUPAC>
5-methylcytidine

> <JCHEM_VEBER_RULE>
0

> <HMDB_ID>
HMDB00982

> <GENERIC_NAME>
5-Methylcytidine

> <SYNONYMS>
5-Methyl-cytidine; 5-Methylcytidine

$$$$
