
  Mrv0541 02231219442D          

 10 10  0  0  0  0            999 V2000
   23.5366  -19.5245    0.0000 O   0  0  0  0  0  0  0  0  0  0  0  0
   24.2511  -19.9370    0.0000 C   0  0  0  0  0  0  0  0  0  0  0  0
   24.2511  -20.7620    0.0000 C   0  0  0  0  0  0  0  0  0  0  0  0
   23.5366  -21.1744    0.0000 C   0  0  0  0  0  0  0  0  0  0  0  0
   23.5366  -21.9995    0.0000 C   0  0  0  0  0  0  0  0  0  0  0  0
   24.2511  -22.4120    0.0000 C   0  0  0  0  0  0  0  0  0  0  0  0
   22.8221  -22.4120    0.0000 C   0  0  0  0  0  0  0  0  0  0  0  0
   24.2511  -23.2370    0.0000 C   0  0  0  0  0  0  0  0  0  0  0  0
   22.8221  -23.2370    0.0000 C   0  0  0  0  0  0  0  0  0  0  0  0
   23.5366  -23.6495    0.0000 C   0  0  0  0  0  0  0  0  0  0  0  0
  1  2  2  0  0  0  0
  2  3  1  0  0  0  0
  3  4  2  0  0  0  0
  4  5  1  0  0  0  0
  5  6  2  0  0  0  0
  5  7  1  0  0  0  0
  6  8  1  0  0  0  0
  7  9  2  0  0  0  0
  8 10  2  0  0  0  0
  9 10  1  0  0  0  0
M  END
> <DATABASE_ID>
HMDB03441

> <DATABASE_NAME>
hmdb

> <SMILES>
O=C\C=C\C1=CC=CC=C1

> <INCHI_IDENTIFIER>
InChI=1S/C9H8O/c10-8-4-7-9-5-2-1-3-6-9/h1-8H/b7-4+

> <INCHI_KEY>
KJPRLNWUNMBNBZ-QPJJXVBHSA-N

> <FORMULA>
C9H8O

> <MOLECULAR_WEIGHT>
132.1592

> <EXACT_MASS>
132.057514878

> <JCHEM_ACCEPTOR_COUNT>
1

> <JCHEM_AVERAGE_POLARIZABILITY>
14.476246951483134

> <JCHEM_BIOAVAILABILITY>
1

> <JCHEM_DONOR_COUNT>
0

> <JCHEM_FORMAL_CHARGE>
0

> <JCHEM_GHOSE_FILTER>
0

> <JCHEM_IUPAC>
(2E)-3-phenylprop-2-enal

> <ALOGPS_LOGP>
2.00

> <JCHEM_LOGP>
1.9774700076666665

> <ALOGPS_LOGS>
-2.51

> <JCHEM_MDDR_LIKE_RULE>
0

> <JCHEM_NUMBER_OF_RINGS>
1

> <JCHEM_PHYSIOLOGICAL_CHARGE>
0

> <JCHEM_PKA_STRONGEST_BASIC>
-4.439447314621728

> <JCHEM_POLAR_SURFACE_AREA>
17.07

> <JCHEM_REFRACTIVITY>
42.1345

> <JCHEM_ROTATABLE_BOND_COUNT>
2

> <JCHEM_RULE_OF_FIVE>
1

> <ALOGPS_SOLUBILITY>
4.09e-01 g/l

> <JCHEM_TRADITIONAL_IUPAC>
cinnamal

> <JCHEM_VEBER_RULE>
1

> <HMDB_ID>
HMDB03441

> <GENERIC_NAME>
Cinnamaldehyde

> <SYNONYMS>
(2E)-3-Phenyl-2-propenal; (2E)-3-phenylacrylaldehyde; (E)-3-Phenyl-2-propenal; (E)-3-Phenylpropenal; (E)-Cinnamaldehyde; 3-Fenylpropenal; 3-Phenyl-2-propen-1-al; 3-Phenyl-2-propenaldehyde; 3-Phenylacrolein; 3-Phenylacrylaldehyde; 3-Phenylprop-2-enal; 3-Phenylpropenal; Benzylideneacetaldehyde; beta-Phenylcrolein; Cinnamal; Cinnamic aldehyde; Cinnamyl aldehyde; Cinnamylaldehyde; Cinnemaldehyde; trans-3-Phenyl-2-propenal; trans-Cinnamaldehyde; trans-Cinnamic aldehyde; trans-Cinnamylaldehyde

$$$$
