
  Mrv0541 02231215562D          

  7  7  0  0  0  0            999 V2000
    0.7145    2.0625    0.0000 O   0  0  0  0  0  0  0  0  0  0  0  0
    0.7145    1.2375    0.0000 C   0  0  0  0  0  0  0  0  0  0  0  0
    1.4289    0.8250    0.0000 C   0  0  0  0  0  0  0  0  0  0  0  0
    1.4289    0.0000    0.0000 C   0  0  0  0  0  0  0  0  0  0  0  0
    0.7145   -0.4125    0.0000 C   0  0  0  0  0  0  0  0  0  0  0  0
    0.0000    0.0000    0.0000 C   0  0  0  0  0  0  0  0  0  0  0  0
    0.0000    0.8250    0.0000 C   0  0  0  0  0  0  0  0  0  0  0  0
  1  2  2  0  0  0  0
  2  3  1  0  0  0  0
  3  4  1  0  0  0  0
  4  5  1  0  0  0  0
  5  6  1  0  0  0  0
  6  7  1  0  0  0  0
  2  7  1  0  0  0  0
M  END
> <DATABASE_ID>
HMDB03315

> <DATABASE_NAME>
hmdb

> <SMILES>
O=C1CCCCC1

> <INCHI_IDENTIFIER>
InChI=1S/C6H10O/c7-6-4-2-1-3-5-6/h1-5H2

> <INCHI_KEY>
JHIVVAPYMSGYDF-UHFFFAOYSA-N

> <FORMULA>
C6H10O

> <MOLECULAR_WEIGHT>
98.143

> <EXACT_MASS>
98.073164942

> <JCHEM_ACCEPTOR_COUNT>
1

> <JCHEM_AVERAGE_POLARIZABILITY>
11.152235309775772

> <JCHEM_BIOAVAILABILITY>
1

> <JCHEM_DONOR_COUNT>
0

> <JCHEM_FORMAL_CHARGE>
0

> <JCHEM_GHOSE_FILTER>
0

> <JCHEM_IUPAC>
cyclohexanone

> <ALOGPS_LOGP>
1.03

> <JCHEM_LOGP>
1.4881942646666666

> <ALOGPS_LOGS>
-0.70

> <JCHEM_MDDR_LIKE_RULE>
0

> <JCHEM_NUMBER_OF_RINGS>
1

> <JCHEM_PHYSIOLOGICAL_CHARGE>
0

> <JCHEM_PKA_STRONGEST_BASIC>
-7.3469833344911795

> <JCHEM_POLAR_SURFACE_AREA>
17.07

> <JCHEM_REFRACTIVITY>
28.247399999999995

> <JCHEM_ROTATABLE_BOND_COUNT>
0

> <JCHEM_RULE_OF_FIVE>
1

> <ALOGPS_SOLUBILITY>
1.96e+01 g/l

> <JCHEM_TRADITIONAL_IUPAC>
cyclohexanone

> <JCHEM_VEBER_RULE>
1

> <HMDB_ID>
HMDB03315

> <GENERIC_NAME>
Cyclohexanone

> <SYNONYMS>
ANON; Anone; Cicloesanone; Cyclic ketone; Cyclohexanon; Cyclohexanon(dutch); Cyclohexanone; Cyclohexanone homopolymer; Cyclohexyl ketone; Cykloheksanon; Hexanon; Hytrol O; Hytrolo; Ketocyclohexane; Ketohexamethylene; Nadone; Oxocyclohexane; Pimelic ketone; Pimelin ketone; Rcra waste number U057; Sextone

$$$$
