
  Mrv0541 02231219352D          

 21 23  0  0  1  0            999 V2000
   21.0831  -12.6686    0.0000 O   0  0  0  0  0  0  0  0  0  0  0  0
   23.9545  -13.5222    0.0000 O   0  0  0  0  0  0  0  0  0  0  0  0
   25.4244  -10.9987    0.0000 O   0  0  0  0  0  0  0  0  0  0  0  0
   20.3686   -8.9561    0.0000 O   0  0  0  0  0  0  0  0  0  0  0  0
   18.9396   -9.7811    0.0000 O   0  0  0  0  0  0  0  0  0  0  0  0
   22.5121  -11.0186    0.0000 O   0  0  0  0  0  0  0  0  0  0  0  0
   21.7975  -12.2561    0.0000 C   0  0  2  0  0  0  0  0  0  0  0  0
   21.7975  -11.4311    0.0000 C   0  0  1  0  0  0  0  0  0  0  0  0
   22.5121  -12.6686    0.0000 C   0  0  0  0  0  0  0  0  0  0  0  0
   23.9640  -12.6972    0.0000 C   0  0  0  0  0  0  0  0  0  0  0  0
   24.7115  -11.4140    0.0000 C   0  0  0  0  0  0  0  0  0  0  0  0
   20.3686   -9.7811    0.0000 C   0  0  0  0  0  0  0  0  0  0  0  0
   19.6542  -10.1936    0.0000 C   0  0  0  0  0  0  0  0  0  0  0  0
   23.2265  -11.4311    0.0000 C   0  0  0  0  0  0  0  0  0  0  0  0
   23.2265  -12.2561    0.0000 C   0  0  0  0  0  0  0  0  0  0  0  0
   21.0831  -11.0186    0.0000 C   0  0  0  0  0  0  0  0  0  0  0  0
   24.7115  -12.2733    0.0000 C   0  0  0  0  0  0  0  0  0  0  0  0
   23.9640  -10.9900    0.0000 C   0  0  0  0  0  0  0  0  0  0  0  0
   21.0831  -10.1936    0.0000 C   0  0  0  0  0  0  0  0  0  0  0  0
   19.6542  -11.0186    0.0000 C   0  0  0  0  0  0  0  0  0  0  0  0
   20.3686  -11.4311    0.0000 C   0  0  0  0  0  0  0  0  0  0  0  0
  7  1  1  6  0  0  0
  2 10  1  0  0  0  0
  3 11  1  0  0  0  0
  4 12  1  0  0  0  0
  5 13  1  0  0  0  0
  6  8  1  0  0  0  0
  6 14  1  0  0  0  0
  7  8  1  0  0  0  0
  7  9  1  0  0  0  0
  8 16  1  1  0  0  0
  9 15  1  0  0  0  0
 10 15  2  0  0  0  0
 10 17  1  0  0  0  0
 11 17  2  0  0  0  0
 11 18  1  0  0  0  0
 12 13  2  0  0  0  0
 12 19  1  0  0  0  0
 13 20  1  0  0  0  0
 14 15  1  0  0  0  0
 14 18  2  0  0  0  0
 16 19  2  0  0  0  0
 16 21  1  0  0  0  0
 20 21  2  0  0  0  0
M  END
> <DATABASE_ID>
HMDB02780

> <DATABASE_NAME>
hmdb

> <SMILES>
O[C@H]1CC2=C(O)C=C(O)C=C2O[C@@H]1C1=CC(O)=C(O)C=C1

> <INCHI_IDENTIFIER>
InChI=1S/C15H14O6/c16-8-4-11(18)9-6-13(20)15(21-14(9)5-8)7-1-2-10(17)12(19)3-7/h1-5,13,15-20H,6H2/t13-,15+/m0/s1

> <INCHI_KEY>
PFTAWBLQPZVEMU-DZGCQCFKSA-N

> <FORMULA>
C15H14O6

> <MOLECULAR_WEIGHT>
290.2681

> <EXACT_MASS>
290.07903818

> <JCHEM_ACCEPTOR_COUNT>
6

> <JCHEM_AVERAGE_POLARIZABILITY>
27.887280255582272

> <JCHEM_BIOAVAILABILITY>
1

> <JCHEM_DONOR_COUNT>
5

> <JCHEM_FORMAL_CHARGE>
0

> <JCHEM_GHOSE_FILTER>
1

> <JCHEM_IUPAC>
(2R,3S)-2-(3,4-dihydroxyphenyl)-3,4-dihydro-2H-1-benzopyran-3,5,7-triol

> <ALOGPS_LOGP>
1.02

> <JCHEM_LOGP>
1.795107015333333

> <ALOGPS_LOGS>
-2.65

> <JCHEM_MDDR_LIKE_RULE>
0

> <JCHEM_NUMBER_OF_RINGS>
3

> <JCHEM_PHYSIOLOGICAL_CHARGE>
0

> <JCHEM_PKA>
9.62402269729718

> <JCHEM_PKA_STRONGEST_ACIDIC>
9.00457381362944

> <JCHEM_PKA_STRONGEST_BASIC>
-3.289719332242856

> <JCHEM_POLAR_SURFACE_AREA>
110.38000000000001

> <JCHEM_REFRACTIVITY>
73.99970000000003

> <JCHEM_ROTATABLE_BOND_COUNT>
1

> <JCHEM_RULE_OF_FIVE>
1

> <ALOGPS_SOLUBILITY>
6.45e-01 g/l

> <JCHEM_TRADITIONAL_IUPAC>
(+)-catechol

> <JCHEM_VEBER_RULE>
0

> <HMDB_ID>
HMDB02780

> <GENERIC_NAME>
Catechin

> <SYNONYMS>
(+)-Catechin; (+)-catechin hydrate; (+)-Cyanidan-3-ol; (+)-Cyanidanol; (+/-)-Catechin; (+/-)-catechin hydrate; (2R,3S)-(+)-Catechin; (2R,3S)-Catechin; 3,3',4',5,7-Flavanpentol; Biocatechin; Catechin; Catechinate; Catechinic acid; Catechuate; Catechuic acid; Catergen; Cianidanol; Cianidanolum; Cianidol; Cyanidanol; D-(+)-Catechin; D-Catechin; Trans3,3,4,5,7 pentahydroxyflavane; YK-85 Light Yellow Powder 85

$$$$
