
  Mrv0541 02231219322D          

 12 12  0  0  0  0            999 V2000
   15.6032   -8.6092    0.0000 O   0  0  0  0  0  0  0  0  0  0  0  0
   14.1742  -12.7342    0.0000 O   0  0  0  0  0  0  0  0  0  0  0  0
   14.1742   -8.6092    0.0000 O   0  0  0  0  0  0  0  0  0  0  0  0
   15.6032  -12.7342    0.0000 O   0  0  0  0  0  0  0  0  0  0  0  0
   14.8886  -12.3217    0.0000 C   0  0  0  0  0  0  0  0  0  0  0  0
   14.8886   -9.0217    0.0000 C   0  0  0  0  0  0  0  0  0  0  0  0
   14.8886  -11.4967    0.0000 C   0  0  0  0  0  0  0  0  0  0  0  0
   14.8886   -9.8467    0.0000 C   0  0  0  0  0  0  0  0  0  0  0  0
   14.1742  -10.2592    0.0000 C   0  0  0  0  0  0  0  0  0  0  0  0
   14.1742  -11.0842    0.0000 C   0  0  0  0  0  0  0  0  0  0  0  0
   15.6032  -10.2592    0.0000 C   0  0  0  0  0  0  0  0  0  0  0  0
   15.6032  -11.0842    0.0000 C   0  0  0  0  0  0  0  0  0  0  0  0
  1  6  1  0  0  0  0
  2  5  1  0  0  0  0
  3  6  2  0  0  0  0
  4  5  2  0  0  0  0
  5  7  1  0  0  0  0
  6  8  1  0  0  0  0
  7 10  2  0  0  0  0
  7 12  1  0  0  0  0
  8  9  2  0  0  0  0
  8 11  1  0  0  0  0
  9 10  1  0  0  0  0
 11 12  2  0  0  0  0
M  END
> <DATABASE_ID>
HMDB02428

> <DATABASE_NAME>
hmdb

> <SMILES>
OC(=O)C1=CC=C(C=C1)C(O)=O

> <INCHI_IDENTIFIER>
InChI=1S/C8H6O4/c9-7(10)5-1-2-6(4-3-5)8(11)12/h1-4H,(H,9,10)(H,11,12)

> <INCHI_KEY>
KKEYFWRCBNTPAC-UHFFFAOYSA-N

> <FORMULA>
C8H6O4

> <MOLECULAR_WEIGHT>
166.1308

> <EXACT_MASS>
166.02660868

> <JCHEM_ACCEPTOR_COUNT>
4

> <JCHEM_AVERAGE_POLARIZABILITY>
15.196395864563812

> <JCHEM_BIOAVAILABILITY>
1

> <JCHEM_DONOR_COUNT>
2

> <JCHEM_FORMAL_CHARGE>
0

> <JCHEM_GHOSE_FILTER>
0

> <JCHEM_IUPAC>
benzene-1,4-dicarboxylic acid

> <ALOGPS_LOGP>
1.01

> <JCHEM_LOGP>
1.2884116319999999

> <ALOGPS_LOGS>
-1.86

> <JCHEM_MDDR_LIKE_RULE>
0

> <JCHEM_NUMBER_OF_RINGS>
1

> <JCHEM_PHYSIOLOGICAL_CHARGE>
-2

> <JCHEM_PKA>
4.56360221460787

> <JCHEM_PKA_STRONGEST_ACIDIC>
3.3203665007464127

> <JCHEM_POLAR_SURFACE_AREA>
74.6

> <JCHEM_REFRACTIVITY>
40.57040000000001

> <JCHEM_ROTATABLE_BOND_COUNT>
2

> <JCHEM_RULE_OF_FIVE>
1

> <ALOGPS_SOLUBILITY>
2.29e+00 g/l

> <JCHEM_TRADITIONAL_IUPAC>
terephthalic acid

> <JCHEM_VEBER_RULE>
0

> <HMDB_ID>
HMDB02428

> <GENERIC_NAME>
Terephthalic acid

> <SYNONYMS>
1,4-Benzenedicarboxylate; 1,4-Benzenedicarboxylic acid; Benzene-p-dicarboxylate; Benzene-p-dicarboxylic acid; Kyselina terftalova; p-Benzenedicarboxylate; p-Benzenedicarboxylic acid; p-Dicarboxybenzene; p-Phthalate; p-Phthalic acid; P-Phthelate; P-Phthelic acid; Terephthalic acid

$$$$
