Tryptophan.mol
  Mrv0541 02231218262D          

 12 13  0  0  0  0            999 V2000
   -2.2339   -0.9841    0.0000 N   0  0  0  0  0  0  0  0  0  0  0  0
   -1.6208   -0.4321    0.0000 C   0  0  0  0  0  0  0  0  0  0  0  0
   -0.8362   -0.6871    0.0000 C   0  0  0  0  0  0  0  0  0  0  0  0
   -0.2231   -0.1350    0.0000 C   0  0  0  0  0  0  0  0  0  0  0  0
   -0.3093    0.6855    0.0000 C   0  0  0  0  0  0  0  0  0  0  0  0
    0.4444    1.0210    0.0000 N   0  0  0  0  0  0  0  0  0  0  0  0
    0.9964    0.4079    0.0000 C   0  0  0  0  0  0  0  0  0  0  0  0
    1.8214    0.4079    0.0000 C   0  0  0  0  0  0  0  0  0  0  0  0
    2.2339   -0.3065    0.0000 C   0  0  0  0  0  0  0  0  0  0  0  0
    1.8214   -1.0210    0.0000 C   0  0  0  0  0  0  0  0  0  0  0  0
    0.9964   -1.0210    0.0000 C   0  0  0  0  0  0  0  0  0  0  0  0
    0.5839   -0.3065    0.0000 C   0  0  0  0  0  0  0  0  0  0  0  0
  1  2  1  0  0  0  0
  2  3  1  0  0  0  0
  3  4  1  0  0  0  0
  4  5  2  0  0  0  0
  5  6  1  0  0  0  0
  6  7  1  0  0  0  0
  7  8  2  0  0  0  0
  8  9  1  0  0  0  0
  9 10  2  0  0  0  0
 10 11  1  0  0  0  0
 11 12  2  0  0  0  0
  4 12  1  0  0  0  0
  7 12  1  0  0  0  0
M  END
> <DATABASE_ID>
HMDB00303

> <DATABASE_NAME>
hmdb

> <SMILES>
NCCC1=CNC2=CC=CC=C12

> <INCHI_IDENTIFIER>
InChI=1S/C10H12N2/c11-6-5-8-7-12-10-4-2-1-3-9(8)10/h1-4,7,12H,5-6,11H2

> <INCHI_KEY>
APJYDQYYACXCRM-UHFFFAOYSA-N

> <FORMULA>
C10H12N2

> <MOLECULAR_WEIGHT>
160.2157

> <EXACT_MASS>
160.100048394

> <JCHEM_ACCEPTOR_COUNT>
1

> <JCHEM_AVERAGE_POLARIZABILITY>
18.336363890038008

> <JCHEM_BIOAVAILABILITY>
1

> <JCHEM_DONOR_COUNT>
2

> <JCHEM_FORMAL_CHARGE>
0

> <JCHEM_GHOSE_FILTER>
1

> <JCHEM_IUPAC>
2-(1H-indol-3-yl)ethan-1-amine

> <ALOGPS_LOGP>
1.21

> <JCHEM_LOGP>
1.48643745

> <ALOGPS_LOGS>
-2.08

> <JCHEM_MDDR_LIKE_RULE>
0

> <JCHEM_NUMBER_OF_RINGS>
2

> <JCHEM_PHYSIOLOGICAL_CHARGE>
1

> <JCHEM_PKA_STRONGEST_ACIDIC>
17.170311785836876

> <JCHEM_PKA_STRONGEST_BASIC>
9.733973681017083

> <JCHEM_POLAR_SURFACE_AREA>
41.81

> <JCHEM_REFRACTIVITY>
50.37290000000001

> <JCHEM_ROTATABLE_BOND_COUNT>
2

> <JCHEM_RULE_OF_FIVE>
1

> <ALOGPS_SOLUBILITY>
1.34e+00 g/l

> <JCHEM_TRADITIONAL_IUPAC>
tryptamine

> <JCHEM_VEBER_RULE>
0

> <HMDB_ID>
HMDB00303

> <GENERIC_NAME>
Tryptamine

> <SYNONYMS>
(3-Indolyl)ethylamine; 1H-Indole-3-ethanamine; 2-(1H-Indol-3-yl)ethanamine; 2-(1H-Indol-3-yl)ethylamine; 2-(3-Indolyl)ethylamine; 2-Indol-3-yl-aethylamin; 2-Indol-3-yl-ethylamine; 3-(2-Aminoethyl)-1H-indole; 3-(2-Aminoethyl)indole; 3-Indoleethanamine; 3-Indoleethylamine; Tryptamin; Tryptamine; Tryptaminium

$$$$
