
  Mrv0541 02231218352D          

 39 38  0  0  0  0            999 V2000
   18.6106   -3.7401    0.0000 O   0  0  0  0  0  0  0  0  0  0  0  0
   17.1817   -5.3900    0.0000 O   0  0  0  0  0  0  0  0  0  0  0  0
   16.4673   -4.1526    0.0000 O   0  0  0  0  0  0  0  0  0  0  0  0
   19.3252   -4.9776    0.0000 O   0  0  0  0  0  0  0  0  0  0  0  0
   17.8963   -6.6275    0.0000 O   0  0  0  0  0  0  0  0  0  0  0  0
   15.7528   -2.9151    0.0000 O   0  0  0  0  0  0  0  0  0  0  0  0
   22.1831   -4.1526    0.0000 C   0  0  0  0  0  0  0  0  0  0  0  0
   22.8976   -3.7401    0.0000 C   0  0  0  0  0  0  0  0  0  0  0  0
   15.7528   -8.6901    0.0000 C   0  0  0  0  0  0  0  0  0  0  0  0
   12.8949   -3.7401    0.0000 C   0  0  0  0  0  0  0  0  0  0  0  0
   15.0383   -9.1026    0.0000 C   0  0  0  0  0  0  0  0  0  0  0  0
   12.1805   -4.1526    0.0000 C   0  0  0  0  0  0  0  0  0  0  0  0
   21.4686   -3.7401    0.0000 C   0  0  0  0  0  0  0  0  0  0  0  0
   23.6120   -4.1526    0.0000 C   0  0  0  0  0  0  0  0  0  0  0  0
   15.7528   -7.8651    0.0000 C   0  0  0  0  0  0  0  0  0  0  0  0
   13.6095   -4.1526    0.0000 C   0  0  0  0  0  0  0  0  0  0  0  0
   15.0383   -9.9276    0.0000 C   0  0  0  0  0  0  0  0  0  0  0  0
   11.4660   -3.7401    0.0000 C   0  0  0  0  0  0  0  0  0  0  0  0
   20.7541   -4.1526    0.0000 C   0  0  0  0  0  0  0  0  0  0  0  0
   16.4673   -7.4526    0.0000 C   0  0  0  0  0  0  0  0  0  0  0  0
   14.3239   -3.7401    0.0000 C   0  0  0  0  0  0  0  0  0  0  0  0
   24.3264   -3.7401    0.0000 C   0  0  0  0  0  0  0  0  0  0  0  0
   14.3239  -10.3401    0.0000 C   0  0  0  0  0  0  0  0  0  0  0  0
   10.7516   -4.1526    0.0000 C   0  0  0  0  0  0  0  0  0  0  0  0
   20.0397   -3.7401    0.0000 C   0  0  0  0  0  0  0  0  0  0  0  0
   16.4673   -6.6275    0.0000 C   0  0  0  0  0  0  0  0  0  0  0  0
   15.0383   -4.1526    0.0000 C   0  0  0  0  0  0  0  0  0  0  0  0
   25.0410   -4.1526    0.0000 C   0  0  0  0  0  0  0  0  0  0  0  0
   14.3239  -11.1650    0.0000 C   0  0  0  0  0  0  0  0  0  0  0  0
   10.0370   -3.7401    0.0000 C   0  0  0  0  0  0  0  0  0  0  0  0
   17.8963   -4.1526    0.0000 C   0  0  0  0  0  0  0  0  0  0  0  0
   17.8963   -4.9776    0.0000 C   0  0  0  0  0  0  0  0  0  0  0  0
   17.1817   -3.7401    0.0000 C   0  0  0  0  0  0  0  0  0  0  0  0
   19.3252   -4.1526    0.0000 C   0  0  0  0  0  0  0  0  0  0  0  0
   17.1817   -6.2150    0.0000 C   0  0  0  0  0  0  0  0  0  0  0  0
   15.7528   -3.7401    0.0000 C   0  0  0  0  0  0  0  0  0  0  0  0
   25.7554   -3.7401    0.0000 C   0  0  0  0  0  0  0  0  0  0  0  0
   13.6095  -11.5775    0.0000 C   0  0  0  0  0  0  0  0  0  0  0  0
    9.3225   -4.1526    0.0000 C   0  0  0  0  0  0  0  0  0  0  0  0
  1 31  1  0  0  0  0
  1 34  1  0  0  0  0
  2 32  1  0  0  0  0
  2 35  1  0  0  0  0
  3 33  1  0  0  0  0
  3 36  1  0  0  0  0
  4 34  2  0  0  0  0
  5 35  2  0  0  0  0
  6 36  2  0  0  0  0
  7  8  1  0  0  0  0
  7 13  1  0  0  0  0
  8 14  1  0  0  0  0
  9 11  1  0  0  0  0
  9 15  1  0  0  0  0
 10 12  1  0  0  0  0
 10 16  1  0  0  0  0
 11 17  1  0  0  0  0
 12 18  1  0  0  0  0
 13 19  1  0  0  0  0
 14 22  1  0  0  0  0
 15 20  1  0  0  0  0
 16 21  1  0  0  0  0
 17 23  1  0  0  0  0
 18 24  1  0  0  0  0
 19 25  1  0  0  0  0
 20 26  1  0  0  0  0
 21 27  1  0  0  0  0
 22 28  1  0  0  0  0
 23 29  1  0  0  0  0
 24 30  1  0  0  0  0
 25 34  1  0  0  0  0
 26 35  1  0  0  0  0
 27 36  1  0  0  0  0
 28 37  1  0  0  0  0
 29 38  1  0  0  0  0
 30 39  1  0  0  0  0
 31 32  1  0  0  0  0
 31 33  1  0  0  0  0
M  END
> <DATABASE_ID>
HMDB00548

> <DATABASE_NAME>
hmdb

> <SMILES>
CCCCCCCCCC(=O)OCC(COC(=O)CCCCCCCCC)OC(=O)CCCCCCCCC

> <INCHI_IDENTIFIER>
InChI=1S/C33H62O6/c1-4-7-10-13-16-19-22-25-31(34)37-28-30(39-33(36)27-24-21-18-15-12-9-6-3)29-38-32(35)26-23-20-17-14-11-8-5-2/h30H,4-29H2,1-3H3

> <INCHI_KEY>
LADGBHLMCUINGV-UHFFFAOYSA-N

> <FORMULA>
C33H62O6

> <MOLECULAR_WEIGHT>
554.8418

> <EXACT_MASS>
554.454639716

> <JCHEM_ACCEPTOR_COUNT>
3

> <JCHEM_AVERAGE_POLARIZABILITY>
70.75148357136541

> <JCHEM_BIOAVAILABILITY>
0

> <JCHEM_DONOR_COUNT>
0

> <JCHEM_FORMAL_CHARGE>
0

> <JCHEM_GHOSE_FILTER>
0

> <JCHEM_IUPAC>
1,3-bis(decanoyloxy)propan-2-yl decanoate

> <ALOGPS_LOGP>
8.78

> <JCHEM_LOGP>
10.921911714333332

> <ALOGPS_LOGS>
-7.54

> <JCHEM_MDDR_LIKE_RULE>
0

> <JCHEM_NUMBER_OF_RINGS>
0

> <JCHEM_PHYSIOLOGICAL_CHARGE>
0

> <JCHEM_PKA_STRONGEST_BASIC>
-6.565867985366662

> <JCHEM_POLAR_SURFACE_AREA>
78.9

> <JCHEM_REFRACTIVITY>
158.47230000000005

> <JCHEM_ROTATABLE_BOND_COUNT>
32

> <JCHEM_RULE_OF_FIVE>
0

> <ALOGPS_SOLUBILITY>
1.60e-05 g/l

> <JCHEM_TRADITIONAL_IUPAC>
tricaprin

> <JCHEM_VEBER_RULE>
0

> <HMDB_ID>
HMDB00548

> <GENERIC_NAME>
TG(10:0/10:0/10:0)[iso]

> <SYNONYMS>
1,2, 3-Propanetriyl-Decanoate; 1,2, 3-Propanetriyl-Decanoic acid; 2,3-Bis(decanoyloxy)propyl decanoate; 2,3-Bis(decanoyloxy)propyl decanoate (ACD/Name 4.0); 2,3-Bis(decanoyloxy)propyl decanoic acid; Capric acid triglyceride; Glycerol tricaprate; Glycerol tricaprin; Glycerol tridecanoate; Glycerol tridecanoic acid; Glyceryl tridecanoate; Glyceryl tridecanoic acid; Tri-Decanoin; Tri-N-caprin; Tricapric glyceride; Tricaprin; Tridecanoin

$$$$
