Sitosterol-beta
  Mrv1572001071617112D          
  Marvin  04150909412D          
 34 37  0  0  1  0            999 V2000
   -2.1733   -0.4151    0.0000 C   0  0  0  0  0  0  0  0  0  0  0  0
   -2.8959   -0.8118    0.0000 C   0  0  0  0  0  0  0  0  0  0  0  0
   -2.8959   -1.6509    0.0000 C   0  0  1  0  0  0  0  0  0  0  0  0
   -2.1733   -2.0631    0.0000 C   0  0  0  0  0  0  0  0  0  0  0  0
   -1.4736   -1.6509    0.0000 C   0  0  0  0  0  0  0  0  0  0  0  0
   -0.7587   -2.0631    0.0000 C   0  0  0  0  0  0  0  0  0  0  0  0
   -1.4736   -0.8118    0.0000 C   0  0  2  0  0  0  0  0  0  0  0  0
   -0.7587    0.3930    0.0000 C   0  0  0  0  0  0  0  0  0  0  0  0
   -0.0279    0.8130    0.0000 C   0  0  0  0  0  0  0  0  0  0  0  0
    0.6718    0.3930    0.0000 C   0  0  1  0  0  0  0  0  0  0  0  0
    0.6718   -0.4151    0.0000 C   0  0  1  0  0  0  0  0  0  0  0  0
    1.4565   -0.6719    0.0000 C   0  0  0  0  0  0  0  0  0  0  0  0
    1.9228   -0.0188    0.0000 C   0  0  0  0  0  0  0  0  0  0  0  0
    1.4565    0.6494    0.0000 C   0  0  2  0  0  0  0  0  0  0  0  0
    0.6718    1.2404    0.0000 C   0  0  0  0  0  0  0  0  0  0  0  0
   -1.4736   -0.0033    0.0000 C   0  0  0  0  0  0  0  0  0  0  0  0
    0.6718   -1.2469    0.0000 H   0  0  0  0  0  0  0  0  0  0  0  0
    2.1796    1.0539    0.0000 H   0  0  0  0  0  0  0  0  0  0  0  0
   -3.6291   -2.0818    0.0000 O   0  0  0  0  0  0  0  0  0  0  0  0
   -0.7587   -0.4151    0.0000 C   0  0  1  0  0  0  0  0  0  0  0  0
   -0.7587   -1.2405    0.0000 H   0  0  0  0  0  0  0  0  0  0  0  0
    0.7421    1.9093    0.0000 C   0  0  0  0  0  0  0  0  0  0  0  0
   -0.0279   -0.8118    0.0000 C   0  0  1  0  0  0  0  0  0  0  0  0
   -0.0279    0.0134    0.0000 H   0  0  0  0  0  0  0  0  0  0  0  0
   -0.0279   -1.6509    0.0000 C   0  0  0  0  0  0  0  0  0  0  0  0
    2.8855    1.4968    0.0000 C   0  0  0  0  0  0  0  0  0  0  0  0
    3.5999    1.9093    0.0000 C   0  0  2  0  0  0  0  0  0  0  0  0
    4.3144    1.4968    0.0000 C   0  0  0  0  0  0  0  0  0  0  0  0
    4.3144    0.6718    0.0000 C   0  0  0  0  0  0  0  0  0  0  0  0
    2.1710    1.9093    0.0000 C   0  0  0  0  0  0  0  0  0  0  0  0
    1.4565    1.4968    0.0000 C   0  0  2  0  0  0  0  0  0  0  0  0
    5.0289    1.9093    0.0000 C   0  0  0  0  0  0  0  0  0  0  0  0
    3.5999    2.7343    0.0000 C   0  0  0  0  0  0  0  0  0  0  0  0
    4.3144    3.1468    0.0000 C   0  0  0  0  0  0  0  0  0  0  0  0
 11 10  1  0  0  0  0
 14 10  1  0  0  0  0
  9 10  1  0  0  0  0
 10 15  1  1  0  0  0
 23 11  1  0  0  0  0
 12 11  1  0  0  0  0
 11 17  1  6  0  0  0
  8 20  1  0  0  0  0
  7 20  1  0  0  0  0
 23 20  1  0  0  0  0
 25 23  1  0  0  0  0
  5  7  1  0  0  0  0
  7 16  1  1  0  0  0
  1  7  1  0  0  0  0
 13 14  1  0  0  0  0
 31 14  1  0  0  0  0
 14 18  1  6  0  0  0
  8  9  1  0  0  0  0
 13 12  1  0  0  0  0
  6 25  1  0  0  0  0
  4  5  1  0  0  0  0
  6  5  2  0  0  0  0
  2  1  1  0  0  0  0
  3  4  1  0  0  0  0
  3  2  1  0  0  0  0
  3 19  1  1  0  0  0
 20 21  1  6  0  0  0
 31 22  1  6  0  0  0
 23 24  1  1  0  0  0
 30 26  1  0  0  0  0
 27 26  1  0  0  0  0
 28 27  1  0  0  0  0
 29 28  1  0  0  0  0
 32 28  1  0  0  0  0
 30 31  1  0  0  0  0
 27 33  1  1  0  0  0
 33 34  1  0  0  0  0
M  END
> <DATABASE_ID>
HMDB00852

> <DATABASE_NAME>
hmdb

> <SMILES>
[H][C@@]1(CC[C@@]2([H])[C@]3([H])CC=C4C[C@@H](O)CC[C@]4(C)[C@@]3([H])CC[C@]12C)[C@H](C)CC[C@@H](CC)C(C)C

> <INCHI_IDENTIFIER>
InChI=1S/C29H50O/c1-7-21(19(2)3)9-8-20(4)25-12-13-26-24-11-10-22-18-23(30)14-16-28(22,5)27(24)15-17-29(25,26)6/h10,19-21,23-27,30H,7-9,11-18H2,1-6H3/t20-,21-,23+,24+,25-,26+,27+,28+,29-/m1/s1

> <INCHI_KEY>
KZJWDPNRJALLNS-VJSFXXLFSA-N

> <FORMULA>
C29H50O

> <MOLECULAR_WEIGHT>
414.718

> <EXACT_MASS>
414.38616623

> <JCHEM_ACCEPTOR_COUNT>
1

> <JCHEM_ATOM_COUNT>
80

> <JCHEM_AVERAGE_POLARIZABILITY>
54.21039057074882

> <JCHEM_BIOAVAILABILITY>
1

> <JCHEM_DONOR_COUNT>
1

> <JCHEM_FORMAL_CHARGE>
0

> <JCHEM_GHOSE_FILTER>
0

> <JCHEM_IUPAC>
(1S,2R,5S,10S,11S,14R,15R)-14-[(2R,5R)-5-ethyl-6-methylheptan-2-yl]-2,15-dimethyltetracyclo[8.7.0.0²,⁷.0¹¹,¹⁵]heptadec-7-en-5-ol

> <ALOGPS_LOGP>
7.27

> <JCHEM_LOGP>
7.844476792000004

> <ALOGPS_LOGS>
-7.35

> <JCHEM_MDDR_LIKE_RULE>
1

> <JCHEM_NUMBER_OF_RINGS>
4

> <JCHEM_PHYSIOLOGICAL_CHARGE>
0

> <JCHEM_PKA_STRONGEST_ACIDIC>
18.20428950550382

> <JCHEM_PKA_STRONGEST_BASIC>
-1.3972437702926293

> <JCHEM_POLAR_SURFACE_AREA>
20.23

> <JCHEM_REFRACTIVITY>
129.76609999999997

> <JCHEM_ROTATABLE_BOND_COUNT>
6

> <JCHEM_RULE_OF_FIVE>
0

> <ALOGPS_SOLUBILITY>
1.84e-05 g/l

> <JCHEM_TRADITIONAL_IUPAC>
sitosterol

> <JCHEM_VEBER_RULE>
1

> <HMDB_ID>
HMDB00852

> <GENERIC_NAME>
Beta-Sitosterol

> <SYNONYMS>
(-)-b-Sitosterol; (-)-beta-Sitosterol; (24R)-Ethylcholest-5-en-3b-ol; (24R)-Stigmast-5-en-3b-ol; 22,23-Dihydro-Stigmasterol; 22,23-Dihydrostigmasterol; 24a-Ethylcholesterol; a-Dihydrofucosterol; a-Phytosterol; alpha-Dihydrofucosterol; alpha-Phytosterol; Angelicin; Azuprostat; b-Sitosterin; b-Sitosterol; beta-Phytosterol; beta-Sitosterin; beta-Sitosterol; Cinchol; Cupreol; D5-Stigmasten-3b-ol; Delta5-Stigmasten-3b-ol; Harzol; Nimbosterol; Phytosterol; Prostasal; Quebrachol; Rhamnol; Sito-Lande; Sitosterol; Sobatum; Stigmast-5-en-3-ol; Stigmast-5-en-3b-ol; Triastonal

$$$$
