Isovalerylglycine.mol
  Mrv0541 02231218412D          

 11 10  0  0  0  0            999 V2000
    1.7862    0.2063    0.0000 C   0  0  0  0  0  0  0  0  0  0  0  0
    0.3572    0.2063    0.0000 N   0  0  0  0  0  0  0  0  0  0  0  0
    1.0717   -0.2063    0.0000 C   0  0  0  0  0  0  0  0  0  0  0  0
    1.7862    1.0313    0.0000 O   0  0  0  0  0  0  0  0  0  0  0  0
    2.5006   -0.2062    0.0000 O   0  0  0  0  0  0  0  0  0  0  0  0
   -0.3572   -0.2063    0.0000 C   0  0  0  0  0  0  0  0  0  0  0  0
   -0.3572   -1.0313    0.0000 O   0  0  0  0  0  0  0  0  0  0  0  0
   -1.0717    0.2062    0.0000 C   0  0  0  0  0  0  0  0  0  0  0  0
   -1.7862   -0.2063    0.0000 C   0  0  0  0  0  0  0  0  0  0  0  0
   -1.7862   -1.0313    0.0000 C   0  0  0  0  0  0  0  0  0  0  0  0
   -2.5006    0.2062    0.0000 C   0  0  0  0  0  0  0  0  0  0  0  0
  2  3  1  0  0  0  0
  1  3  1  0  0  0  0
  1  4  2  0  0  0  0
  1  5  1  0  0  0  0
  6  7  2  0  0  0  0
  6  8  1  0  0  0  0
  8  9  1  0  0  0  0
  9 10  1  0  0  0  0
  9 11  1  0  0  0  0
  2  6  1  0  0  0  0
M  END
> <DATABASE_ID>
HMDB00678

> <DATABASE_NAME>
hmdb

> <SMILES>
CC(C)CC(=O)NCC(O)=O

> <INCHI_IDENTIFIER>
InChI=1S/C7H13NO3/c1-5(2)3-6(9)8-4-7(10)11/h5H,3-4H2,1-2H3,(H,8,9)(H,10,11)

> <INCHI_KEY>
ZRQXMKMBBMNNQC-UHFFFAOYSA-N

> <FORMULA>
C7H13NO3

> <MOLECULAR_WEIGHT>
159.183

> <EXACT_MASS>
159.089543287

> <JCHEM_ACCEPTOR_COUNT>
3

> <JCHEM_AVERAGE_POLARIZABILITY>
16.386150900415306

> <JCHEM_BIOAVAILABILITY>
1

> <JCHEM_DONOR_COUNT>
2

> <JCHEM_FORMAL_CHARGE>
0

> <JCHEM_GHOSE_FILTER>
0

> <JCHEM_IUPAC>
2-(3-methylbutanamido)acetic acid

> <ALOGPS_LOGP>
0.35

> <JCHEM_LOGP>
0.10349465433333323

> <ALOGPS_LOGS>
-1.39

> <JCHEM_MDDR_LIKE_RULE>
0

> <JCHEM_NUMBER_OF_RINGS>
0

> <JCHEM_PHYSIOLOGICAL_CHARGE>
-1

> <JCHEM_PKA>
15.905941443928413

> <JCHEM_PKA_STRONGEST_ACIDIC>
4.166380726923678

> <JCHEM_PKA_STRONGEST_BASIC>
-1.0541852281495263

> <JCHEM_POLAR_SURFACE_AREA>
66.4

> <JCHEM_REFRACTIVITY>
39.2237

> <JCHEM_ROTATABLE_BOND_COUNT>
4

> <JCHEM_RULE_OF_FIVE>
1

> <ALOGPS_SOLUBILITY>
6.50e+00 g/l

> <JCHEM_TRADITIONAL_IUPAC>
(3-methylbutanamido)acetic acid

> <JCHEM_VEBER_RULE>
0

> <HMDB_ID>
HMDB00678

> <GENERIC_NAME>
Isovalerylglycine

> <SYNONYMS>
2-(3-Methylbutanoylamino)ethanoate; 2-(3-Methylbutanoylamino)ethanoic acid; 3-Methylbutyrylglycine; Isovalerylglycine; N-Isovaleroylglycine; N-Isovaleryl-glycine; [(3-methylbutanoyl)amino]acetate; [(3-methylbutanoyl)amino]acetic acid

$$$$
