
  Mrv0541 02231218222D          

 11 11  0  0  1  0            999 V2000
   15.5721  -11.6695    0.0000 O   0  0  0  0  0  0  0  0  0  0  0  0
   15.5721   -9.1945    0.0000 O   0  0  0  0  0  0  0  0  0  0  0  0
   17.0010  -10.0195    0.0000 O   0  0  0  0  0  0  0  0  0  0  0  0
   14.1431  -10.0195    0.0000 O   0  0  0  0  0  0  0  0  0  0  0  0
   14.1431  -11.6695    0.0000 O   0  0  0  0  0  0  0  0  0  0  0  0
   15.5721  -10.0195    0.0000 C   0  0  2  0  0  0  0  0  0  0  0  0
   16.2866  -10.4320    0.0000 C   0  0  1  0  0  0  0  0  0  0  0  0
   14.8576  -10.4320    0.0000 C   0  0  1  0  0  0  0  0  0  0  0  0
   16.2866  -11.2570    0.0000 C   0  0  2  0  0  0  0  0  0  0  0  0
   14.8576  -11.2570    0.0000 C   0  0  0  0  0  0  0  0  0  0  0  0
   17.0010  -11.6695    0.0000 C   0  0  0  0  0  0  0  0  0  0  0  0
  1  9  1  0  0  0  0
  1 10  1  0  0  0  0
  6  2  1  6  0  0  0
  7  3  1  6  0  0  0
  8  4  1  1  0  0  0
  5 10  1  0  0  0  0
  6  7  1  0  0  0  0
  6  8  1  0  0  0  0
  7  9  1  0  0  0  0
  8 10  1  0  0  0  0
  9 11  1  6  0  0  0
M  END
> <DATABASE_ID>
HMDB00174

> <DATABASE_NAME>
hmdb

> <SMILES>
C[C@@H]1OC(O)[C@@H](O)[C@H](O)[C@@H]1O

> <INCHI_IDENTIFIER>
InChI=1S/C6H12O5/c1-2-3(7)4(8)5(9)6(10)11-2/h2-10H,1H3/t2-,3+,4+,5-,6?/m0/s1

> <INCHI_KEY>
SHZGCJCMOBCMKK-DHVFOXMCSA-N

> <FORMULA>
C6H12O5

> <MOLECULAR_WEIGHT>
164.1565

> <EXACT_MASS>
164.068473494

> <JCHEM_ACCEPTOR_COUNT>
5

> <JCHEM_AVERAGE_POLARIZABILITY>
15.345932686336159

> <JCHEM_BIOAVAILABILITY>
1

> <JCHEM_DONOR_COUNT>
4

> <JCHEM_FORMAL_CHARGE>
0

> <JCHEM_GHOSE_FILTER>
0

> <JCHEM_IUPAC>
(3S,4R,5S,6S)-6-methyloxane-2,3,4,5-tetrol

> <ALOGPS_LOGP>
-2.39

> <JCHEM_LOGP>
-1.885629251333333

> <ALOGPS_LOGS>
0.70

> <JCHEM_MDDR_LIKE_RULE>
0

> <JCHEM_NUMBER_OF_RINGS>
1

> <JCHEM_PHYSIOLOGICAL_CHARGE>
0

> <JCHEM_PKA>
12.724419195509512

> <JCHEM_PKA_STRONGEST_ACIDIC>
11.30218058050956

> <JCHEM_PKA_STRONGEST_BASIC>
-3.6121738272477764

> <JCHEM_POLAR_SURFACE_AREA>
90.15

> <JCHEM_REFRACTIVITY>
34.3797

> <JCHEM_ROTATABLE_BOND_COUNT>
0

> <JCHEM_RULE_OF_FIVE>
1

> <ALOGPS_SOLUBILITY>
8.27e+02 g/l

> <JCHEM_TRADITIONAL_IUPAC>
L-fucose

> <JCHEM_VEBER_RULE>
0

> <HMDB_ID>
HMDB00174

> <GENERIC_NAME>
L-Fucose

> <SYNONYMS>
(-)-Fucose; (-)-L-Fucose; 6-Deoxy-beta-galactose; 6-Deoxy-D-galactopyranose; 6-Deoxy-delta-galactopyranose; 6-Deoxy-L-beta-galactose; 6-Deoxy-L-galactopyranose; 6-Deoxy-L-galactose; 6-Desoxygalactose; 6-Methyloxane-2,3,4,5-tetrol; 6-Methyltetrahydropyran-2,3,4,5-tetraol; D-Threo-Aldose; Fucose; Isodulcit; L-(-)-Fucose; L-Fucopyranose; L-Fucose; L-Galactomethylose; Rhodeose

$$$$
