
  Mrv0541 02231220182D          

 18 17  0  0  1  0            999 V2000
   18.1638  -16.3695    0.0000 O   0  0  0  0  0  0  0  0  0  0  0  0
   21.0217  -17.1945    0.0000 O   0  0  0  0  0  0  0  0  0  0  0  0
   18.8783  -15.1320    0.0000 O   0  0  0  0  0  0  0  0  0  0  0  0
   23.8797  -16.3695    0.0000 O   0  0  0  0  0  0  0  0  0  0  0  0
   23.1652  -15.1320    0.0000 O   0  0  0  0  0  0  0  0  0  0  0  0
   20.3073  -15.9570    0.0000 N   0  0  0  0  0  0  0  0  0  0  0  0
   21.7363  -15.1320    0.0000 N   0  0  0  0  0  0  0  0  0  0  0  0
   18.1638  -19.6696    0.0000 N   0  0  0  0  0  0  0  0  0  0  0  0
   19.5928  -17.1945    0.0000 C   0  0  0  0  0  0  0  0  0  0  0  0
   19.5928  -16.3695    0.0000 C   0  0  1  0  0  0  0  0  0  0  0  0
   18.8783  -17.6071    0.0000 C   0  0  0  0  0  0  0  0  0  0  0  0
   18.8783  -18.4321    0.0000 C   0  0  0  0  0  0  0  0  0  0  0  0
   21.7363  -15.9570    0.0000 C   0  0  2  0  0  0  0  0  0  0  0  0
   21.0217  -16.3695    0.0000 C   0  0  0  0  0  0  0  0  0  0  0  0
   18.1638  -18.8446    0.0000 C   0  0  0  0  0  0  0  0  0  0  0  0
   18.8783  -15.9570    0.0000 C   0  0  0  0  0  0  0  0  0  0  0  0
   22.4507  -16.3695    0.0000 C   0  0  0  0  0  0  0  0  0  0  0  0
   23.1652  -15.9570    0.0000 C   0  0  0  0  0  0  0  0  0  0  0  0
  1 16  1  0  0  0  0
  2 14  2  0  0  0  0
  3 16  2  0  0  0  0
  4 18  1  0  0  0  0
  5 18  2  0  0  0  0
 10  6  1  1  0  0  0
  6 14  1  0  0  0  0
 13  7  1  1  0  0  0
  8 15  1  0  0  0  0
  9 10  1  0  0  0  0
  9 11  1  0  0  0  0
 10 16  1  0  0  0  0
 11 12  1  0  0  0  0
 12 15  1  0  0  0  0
 13 14  1  0  0  0  0
 13 17  1  0  0  0  0
 17 18  1  0  0  0  0
M  END
> <DATABASE_ID>
HMDB04987

> <DATABASE_NAME>
hmdb

> <SMILES>
NCCCC[C@H](NC(=O)[C@@H](N)CC(O)=O)C(O)=O

> <INCHI_IDENTIFIER>
InChI=1S/C10H19N3O5/c11-4-2-1-3-7(10(17)18)13-9(16)6(12)5-8(14)15/h6-7H,1-5,11-12H2,(H,13,16)(H,14,15)(H,17,18)/t6-,7-/m0/s1

> <INCHI_KEY>
OAMLVOVXNKILLQ-BQBZGAKWSA-N

> <FORMULA>
C10H19N3O5

> <MOLECULAR_WEIGHT>
261.275

> <EXACT_MASS>
261.132470733

> <JCHEM_ACCEPTOR_COUNT>
7

> <JCHEM_AVERAGE_POLARIZABILITY>
26.32898218596194

> <JCHEM_BIOAVAILABILITY>
1

> <JCHEM_DONOR_COUNT>
5

> <JCHEM_FORMAL_CHARGE>
0

> <JCHEM_GHOSE_FILTER>
0

> <JCHEM_IUPAC>
(2S)-6-amino-2-[(2S)-2-amino-3-carboxypropanamido]hexanoic acid

> <ALOGPS_LOGP>
-4.00

> <JCHEM_LOGP>
-6.415408470762041

> <ALOGPS_LOGS>
-1.63

> <JCHEM_MDDR_LIKE_RULE>
0

> <JCHEM_NUMBER_OF_RINGS>
0

> <JCHEM_PHYSIOLOGICAL_CHARGE>
0

> <JCHEM_PKA>
3.849953145835132

> <JCHEM_PKA_STRONGEST_ACIDIC>
3.143712965529338

> <JCHEM_PKA_STRONGEST_BASIC>
10.214205979225845

> <JCHEM_POLAR_SURFACE_AREA>
155.74

> <JCHEM_REFRACTIVITY>
61.14230000000002

> <JCHEM_ROTATABLE_BOND_COUNT>
9

> <JCHEM_RULE_OF_FIVE>
1

> <ALOGPS_SOLUBILITY>
6.10e+00 g/l

> <JCHEM_TRADITIONAL_IUPAC>
L-aspartyl-l-lysine

> <JCHEM_VEBER_RULE>
0

> <HMDB_ID>
HMDB04987

> <GENERIC_NAME>
Alpha-Aspartyl-lysine

> <SYNONYMS>
alpha-Asp-LYS; alpha-Aspartyl-lysine; L-Aspartyl-L-lysine; N2-L-a-aspartyl-L-Lysine; N2-L-alpha-aspartyl-L-Lysine

$$$$
