
  Mrv0541 02231220212D          

 57 56  0  0  0  0            999 V2000
   18.6213   -3.7401    0.0000 O   0  0  0  0  0  0  0  0  0  0  0  0
   17.1923   -5.3900    0.0000 O   0  0  0  0  0  0  0  0  0  0  0  0
   16.4778   -4.1526    0.0000 O   0  0  0  0  0  0  0  0  0  0  0  0
   19.3358   -4.9776    0.0000 O   0  0  0  0  0  0  0  0  0  0  0  0
   17.9068   -6.6275    0.0000 O   0  0  0  0  0  0  0  0  0  0  0  0
   15.7634   -2.9151    0.0000 O   0  0  0  0  0  0  0  0  0  0  0  0
   24.3370   -3.7401    0.0000 C   0  0  0  0  0  0  0  0  0  0  0  0
   25.0516   -4.1526    0.0000 C   0  0  0  0  0  0  0  0  0  0  0  0
   14.3343  -10.3401    0.0000 C   0  0  0  0  0  0  0  0  0  0  0  0
   10.7620   -4.1526    0.0000 C   0  0  0  0  0  0  0  0  0  0  0  0
   14.3343  -11.1650    0.0000 C   0  0  0  0  0  0  0  0  0  0  0  0
   10.0477   -3.7401    0.0000 C   0  0  0  0  0  0  0  0  0  0  0  0
   23.6226   -4.1526    0.0000 C   0  0  0  0  0  0  0  0  0  0  0  0
   25.7659   -3.7401    0.0000 C   0  0  0  0  0  0  0  0  0  0  0  0
   15.0489   -9.9276    0.0000 C   0  0  0  0  0  0  0  0  0  0  0  0
   11.4765   -3.7401    0.0000 C   0  0  0  0  0  0  0  0  0  0  0  0
   13.6200  -11.5776    0.0000 C   0  0  0  0  0  0  0  0  0  0  0  0
    9.3332   -4.1526    0.0000 C   0  0  0  0  0  0  0  0  0  0  0  0
   22.9081   -3.7401    0.0000 C   0  0  0  0  0  0  0  0  0  0  0  0
   26.4805   -4.1526    0.0000 C   0  0  0  0  0  0  0  0  0  0  0  0
   15.0489   -9.1026    0.0000 C   0  0  0  0  0  0  0  0  0  0  0  0
   12.1910   -4.1526    0.0000 C   0  0  0  0  0  0  0  0  0  0  0  0
   13.6200  -12.4026    0.0000 C   0  0  0  0  0  0  0  0  0  0  0  0
    8.6186   -3.7401    0.0000 C   0  0  0  0  0  0  0  0  0  0  0  0
   22.1936   -4.1526    0.0000 C   0  0  0  0  0  0  0  0  0  0  0  0
   27.1949   -3.7401    0.0000 C   0  0  0  0  0  0  0  0  0  0  0  0
   15.7634   -8.6901    0.0000 C   0  0  0  0  0  0  0  0  0  0  0  0
   12.9055   -3.7401    0.0000 C   0  0  0  0  0  0  0  0  0  0  0  0
   12.9055  -12.8151    0.0000 C   0  0  0  0  0  0  0  0  0  0  0  0
    7.9042   -4.1526    0.0000 C   0  0  0  0  0  0  0  0  0  0  0  0
   21.4791   -3.7401    0.0000 C   0  0  0  0  0  0  0  0  0  0  0  0
   27.9094   -4.1526    0.0000 C   0  0  0  0  0  0  0  0  0  0  0  0
   15.7634   -7.8651    0.0000 C   0  0  0  0  0  0  0  0  0  0  0  0
   13.6200   -4.1526    0.0000 C   0  0  0  0  0  0  0  0  0  0  0  0
   12.9055  -13.6401    0.0000 C   0  0  0  0  0  0  0  0  0  0  0  0
    7.1897   -3.7401    0.0000 C   0  0  0  0  0  0  0  0  0  0  0  0
   20.7648   -4.1526    0.0000 C   0  0  0  0  0  0  0  0  0  0  0  0
   28.6238   -3.7401    0.0000 C   0  0  0  0  0  0  0  0  0  0  0  0
   16.4778   -7.4526    0.0000 C   0  0  0  0  0  0  0  0  0  0  0  0
   14.3343   -3.7401    0.0000 C   0  0  0  0  0  0  0  0  0  0  0  0
   12.1910  -14.0526    0.0000 C   0  0  0  0  0  0  0  0  0  0  0  0
    6.4753   -4.1526    0.0000 C   0  0  0  0  0  0  0  0  0  0  0  0
   20.0502   -3.7401    0.0000 C   0  0  0  0  0  0  0  0  0  0  0  0
   29.3384   -4.1526    0.0000 C   0  0  0  0  0  0  0  0  0  0  0  0
   16.4778   -6.6275    0.0000 C   0  0  0  0  0  0  0  0  0  0  0  0
   15.0489   -4.1526    0.0000 C   0  0  0  0  0  0  0  0  0  0  0  0
   12.1910  -14.8776    0.0000 C   0  0  0  0  0  0  0  0  0  0  0  0
    5.7607   -3.7401    0.0000 C   0  0  0  0  0  0  0  0  0  0  0  0
   17.9068   -4.1526    0.0000 C   0  0  0  0  0  0  0  0  0  0  0  0
   19.3358   -4.1526    0.0000 C   0  0  0  0  0  0  0  0  0  0  0  0
   30.0528   -3.7401    0.0000 C   0  0  0  0  0  0  0  0  0  0  0  0
   17.1923   -6.2150    0.0000 C   0  0  0  0  0  0  0  0  0  0  0  0
   15.7634   -3.7401    0.0000 C   0  0  0  0  0  0  0  0  0  0  0  0
   11.4765  -15.2901    0.0000 C   0  0  0  0  0  0  0  0  0  0  0  0
    5.0463   -4.1526    0.0000 C   0  0  0  0  0  0  0  0  0  0  0  0
   17.9068   -4.9776    0.0000 C   0  0  0  0  0  0  0  0  0  0  0  0
   17.1923   -3.7401    0.0000 C   0  0  0  0  0  0  0  0  0  0  0  0
  1 49  1  0  0  0  0
  1 50  1  0  0  0  0
  2 52  1  0  0  0  0
  2 56  1  0  0  0  0
  3 53  1  0  0  0  0
  3 57  1  0  0  0  0
  4 50  2  0  0  0  0
  5 52  2  0  0  0  0
  6 53  2  0  0  0  0
  7  8  1  0  0  0  0
  7 13  1  0  0  0  0
  8 14  1  0  0  0  0
  9 11  1  0  0  0  0
  9 15  1  0  0  0  0
 10 12  1  0  0  0  0
 10 16  1  0  0  0  0
 11 17  1  0  0  0  0
 12 18  1  0  0  0  0
 13 19  1  0  0  0  0
 14 20  1  0  0  0  0
 15 21  1  0  0  0  0
 16 22  1  0  0  0  0
 17 23  1  0  0  0  0
 18 24  1  0  0  0  0
 19 25  1  0  0  0  0
 20 26  1  0  0  0  0
 21 27  1  0  0  0  0
 22 28  1  0  0  0  0
 23 29  1  0  0  0  0
 24 30  1  0  0  0  0
 25 31  1  0  0  0  0
 26 32  1  0  0  0  0
 27 33  1  0  0  0  0
 28 34  1  0  0  0  0
 29 35  1  0  0  0  0
 30 36  1  0  0  0  0
 31 37  1  0  0  0  0
 32 38  1  0  0  0  0
 33 39  1  0  0  0  0
 34 40  1  0  0  0  0
 35 41  1  0  0  0  0
 36 42  1  0  0  0  0
 37 43  1  0  0  0  0
 38 44  1  0  0  0  0
 39 45  1  0  0  0  0
 40 46  1  0  0  0  0
 41 47  1  0  0  0  0
 42 48  1  0  0  0  0
 43 50  1  0  0  0  0
 44 51  1  0  0  0  0
 45 52  1  0  0  0  0
 46 53  1  0  0  0  0
 47 54  1  0  0  0  0
 48 55  1  0  0  0  0
 49 56  1  0  0  0  0
 49 57  1  0  0  0  0
M  END
> <DATABASE_ID>
HMDB05356

> <DATABASE_NAME>
hmdb

> <SMILES>
CCCCCCCCCCCCCCCC(=O)OCC(COC(=O)CCCCCCCCCCCCCCC)OC(=O)CCCCCCCCCCCCCCC

> <INCHI_IDENTIFIER>
InChI=1S/C51H98O6/c1-4-7-10-13-16-19-22-25-28-31-34-37-40-43-49(52)55-46-48(57-51(54)45-42-39-36-33-30-27-24-21-18-15-12-9-6-3)47-56-50(53)44-41-38-35-32-29-26-23-20-17-14-11-8-5-2/h48H,4-47H2,1-3H3

> <INCHI_KEY>
PVNIQBQSYATKKL-UHFFFAOYSA-N

> <FORMULA>
C51H98O6

> <MOLECULAR_WEIGHT>
807.3202

> <EXACT_MASS>
806.736340868

> <JCHEM_ACCEPTOR_COUNT>
3

> <JCHEM_AVERAGE_POLARIZABILITY>
109.3888847224159

> <JCHEM_BIOAVAILABILITY>
0

> <JCHEM_DONOR_COUNT>
0

> <JCHEM_FORMAL_CHARGE>
0

> <JCHEM_GHOSE_FILTER>
0

> <JCHEM_IUPAC>
1,3-bis(hexadecanoyloxy)propan-2-yl hexadecanoate

> <ALOGPS_LOGP>
10.59

> <JCHEM_LOGP>
18.924147684333334

> <ALOGPS_LOGS>
-7.84

> <JCHEM_MDDR_LIKE_RULE>
0

> <JCHEM_NUMBER_OF_RINGS>
0

> <JCHEM_PHYSIOLOGICAL_CHARGE>
0

> <JCHEM_PKA_STRONGEST_BASIC>
-6.565867985366662

> <JCHEM_POLAR_SURFACE_AREA>
78.9

> <JCHEM_REFRACTIVITY>
241.29030000000006

> <JCHEM_ROTATABLE_BOND_COUNT>
50

> <JCHEM_RULE_OF_FIVE>
0

> <ALOGPS_SOLUBILITY>
1.16e-05 g/l

> <JCHEM_TRADITIONAL_IUPAC>
tripalmitin

> <JCHEM_VEBER_RULE>
0

> <HMDB_ID>
HMDB05356

> <GENERIC_NAME>
TG(16:0/16:0/16:0)[iso]

> <SYNONYMS>
1,2,3-Trihexadecanoyl-sn-glycerol; Barolub LCD; Dynasan 116; Dynosan 114; Glycerin tripalmitate; Glycerol tripalmitate; Glyceryl trihexadecanoate; Glyceryl trihexadecanoic acid; Glyceryl tripalmitate; Palmitic triglyceride; Spezialfett 116; Triglyceride PPP; Triglyceryl palmitate; Tripalmitate; Tripalmitin; Tripalmitoylglycerol

$$$$
