L-Thyronine.mol
  Mrv0541 02231218402D          

 20 21  0  0  0  0            999 V2000
    2.8579    0.4125    0.0000 C   0  0  0  0  0  0  0  0  0  0  0  0
    3.5724   -0.8250    0.0000 N   0  0  0  0  0  0  0  0  0  0  0  0
    2.8579   -0.4125    0.0000 C   0  0  1  0  0  0  0  0  0  0  0  0
    2.1434   -0.8250    0.0000 C   0  0  0  0  0  0  0  0  0  0  0  0
    1.4289   -0.4125    0.0000 C   0  0  0  0  0  0  0  0  0  0  0  0
    0.7145   -0.8250    0.0000 C   0  0  0  0  0  0  0  0  0  0  0  0
    0.0000   -0.4125    0.0000 C   0  0  0  0  0  0  0  0  0  0  0  0
    0.0000    0.4125    0.0000 C   0  0  0  0  0  0  0  0  0  0  0  0
   -0.7145    0.8250    0.0000 O   0  0  0  0  0  0  0  0  0  0  0  0
   -1.4289    0.4125    0.0000 C   0  0  0  0  0  0  0  0  0  0  0  0
   -1.4289   -0.4125    0.0000 C   0  0  0  0  0  0  0  0  0  0  0  0
   -2.1434   -0.8250    0.0000 C   0  0  0  0  0  0  0  0  0  0  0  0
   -2.8579   -0.4125    0.0000 C   0  0  0  0  0  0  0  0  0  0  0  0
   -3.5724   -0.8250    0.0000 O   0  0  0  0  0  0  0  0  0  0  0  0
   -2.8579    0.4125    0.0000 C   0  0  0  0  0  0  0  0  0  0  0  0
   -2.1434    0.8250    0.0000 C   0  0  0  0  0  0  0  0  0  0  0  0
    0.7145    0.8250    0.0000 C   0  0  0  0  0  0  0  0  0  0  0  0
    1.4289    0.4125    0.0000 C   0  0  0  0  0  0  0  0  0  0  0  0
    2.1434    0.8250    0.0000 O   0  0  0  0  0  0  0  0  0  0  0  0
    3.5724    0.8250    0.0000 O   0  0  0  0  0  0  0  0  0  0  0  0
  3  2  1  1  0  0  0
  1  3  1  0  0  0  0
  3  4  1  0  0  0  0
  4  5  1  0  0  0  0
  5  6  2  0  0  0  0
  6  7  1  0  0  0  0
  7  8  2  0  0  0  0
  8  9  1  0  0  0  0
  9 10  1  0  0  0  0
 10 11  2  0  0  0  0
 11 12  1  0  0  0  0
 12 13  2  0  0  0  0
 13 14  1  0  0  0  0
 13 15  1  0  0  0  0
 15 16  2  0  0  0  0
 10 16  1  0  0  0  0
  8 17  1  0  0  0  0
 17 18  2  0  0  0  0
  5 18  1  0  0  0  0
  1 19  2  0  0  0  0
  1 20  1  0  0  0  0
M  END
> <DATABASE_ID>
HMDB00667

> <DATABASE_NAME>
hmdb

> <SMILES>
N[C@@H](CC1=CC=C(OC2=CC=C(O)C=C2)C=C1)C(O)=O

> <INCHI_IDENTIFIER>
InChI=1S/C15H15NO4/c16-14(15(18)19)9-10-1-5-12(6-2-10)20-13-7-3-11(17)4-8-13/h1-8,14,17H,9,16H2,(H,18,19)/t14-/m0/s1

> <INCHI_KEY>
KKCIOUWDFWQUBT-AWEZNQCLSA-N

> <FORMULA>
C15H15NO4

> <MOLECULAR_WEIGHT>
273.2839

> <EXACT_MASS>
273.100107973

> <JCHEM_ACCEPTOR_COUNT>
4

> <JCHEM_AVERAGE_POLARIZABILITY>
27.72057442855484

> <JCHEM_BIOAVAILABILITY>
1

> <JCHEM_DONOR_COUNT>
3

> <JCHEM_FORMAL_CHARGE>
0

> <JCHEM_GHOSE_FILTER>
1

> <JCHEM_IUPAC>
(2S)-2-amino-3-[4-(4-hydroxyphenoxy)phenyl]propanoic acid

> <ALOGPS_LOGP>
-0.27

> <JCHEM_LOGP>
0.011688078228862465

> <ALOGPS_LOGS>
-3.73

> <JCHEM_MDDR_LIKE_RULE>
0

> <JCHEM_NUMBER_OF_RINGS>
2

> <JCHEM_PHYSIOLOGICAL_CHARGE>
0

> <JCHEM_PKA>
9.89501938584323

> <JCHEM_PKA_STRONGEST_ACIDIC>
1.6067892045839294

> <JCHEM_PKA_STRONGEST_BASIC>
9.261323301383692

> <JCHEM_POLAR_SURFACE_AREA>
92.78000000000002

> <JCHEM_REFRACTIVITY>
73.33800000000001

> <JCHEM_ROTATABLE_BOND_COUNT>
5

> <JCHEM_RULE_OF_FIVE>
1

> <ALOGPS_SOLUBILITY>
5.03e-02 g/l

> <JCHEM_TRADITIONAL_IUPAC>
thyronine

> <JCHEM_VEBER_RULE>
0

> <HMDB_ID>
HMDB00667

> <GENERIC_NAME>
L-Thyronine

> <SYNONYMS>
b-(p-Hydroxyphenoxy)phenylalanine; beta-(p-Hydroxyphenoxy)phenylalanine; Desiodothyroxine; L-Thyronine; O-(4-Hydroxyphenyl)tyrosine; Thyronine

$$$$
