
  Mrv0541 02231218462D          

 14 14  0  0  0  0            999 V2000
   -0.5169   -0.5820    0.0000 C   0  0  0  0  0  0  0  0  0  0  0  0
   -0.5101    0.2362    0.0000 C   0  0  0  0  0  0  0  0  0  0  0  0
    0.1952   -0.9894    0.0000 C   0  0  0  0  0  0  0  0  0  0  0  0
   -1.2256   -0.9996    0.0000 C   0  0  0  0  0  0  0  0  0  0  0  0
    0.2019    0.6401    0.0000 N   0  0  0  0  0  0  0  0  0  0  0  0
   -1.2187    0.6538    0.0000 O   0  0  0  0  0  0  0  0  0  0  0  0
    0.2054   -1.8144    0.0000 C   0  0  0  0  0  0  0  0  0  0  0  0
    0.9037   -0.5751    0.0000 O   0  0  0  0  0  0  0  0  0  0  0  0
   -1.2256   -1.8246    0.0000 C   0  0  0  0  0  0  0  0  0  0  0  0
    0.2088    1.4618    0.0000 C   0  0  0  0  0  0  0  0  0  0  0  0
   -0.5066   -2.2321    0.0000 C   0  0  0  0  0  0  0  0  0  0  0  0
    0.9243    1.8726    0.0000 C   0  0  0  0  0  0  0  0  0  0  0  0
    1.6329    1.4549    0.0000 O   0  0  0  0  0  0  0  0  0  0  0  0
    0.9311    2.6942    0.0000 O   0  0  0  0  0  0  0  0  0  0  0  0
  1  2  1  0  0  0  0
  1  3  1  0  0  0  0
  1  4  2  0  0  0  0
  2  5  1  0  0  0  0
  2  6  2  0  0  0  0
  3  7  2  0  0  0  0
  3  8  1  0  0  0  0
  4  9  1  0  0  0  0
  5 10  1  0  0  0  0
  7 11  1  0  0  0  0
 10 12  1  0  0  0  0
 12 13  1  0  0  0  0
 12 14  2  0  0  0  0
  9 11  2  0  0  0  0
M  END
> <DATABASE_ID>
HMDB00840

> <DATABASE_NAME>
hmdb

> <SMILES>
OC(=O)CNC(=O)C1=CC=CC=C1O

> <INCHI_IDENTIFIER>
InChI=1S/C9H9NO4/c11-7-4-2-1-3-6(7)9(14)10-5-8(12)13/h1-4,11H,5H2,(H,10,14)(H,12,13)

> <INCHI_KEY>
ONJSZLXSECQROL-UHFFFAOYSA-N

> <FORMULA>
C9H9NO4

> <MOLECULAR_WEIGHT>
195.1721

> <EXACT_MASS>
195.053157781

> <JCHEM_ACCEPTOR_COUNT>
4

> <JCHEM_AVERAGE_POLARIZABILITY>
18.40248074450586

> <JCHEM_BIOAVAILABILITY>
1

> <JCHEM_DONOR_COUNT>
3

> <JCHEM_FORMAL_CHARGE>
0

> <JCHEM_GHOSE_FILTER>
1

> <JCHEM_IUPAC>
2-[(2-hydroxyphenyl)formamido]acetic acid

> <ALOGPS_LOGP>
0.51

> <JCHEM_LOGP>
0.8719801626666666

> <ALOGPS_LOGS>
-1.68

> <JCHEM_MDDR_LIKE_RULE>
0

> <JCHEM_NUMBER_OF_RINGS>
1

> <JCHEM_PHYSIOLOGICAL_CHARGE>
-1

> <JCHEM_PKA>
8.19503834339619

> <JCHEM_PKA_STRONGEST_ACIDIC>
3.2728783624662166

> <JCHEM_PKA_STRONGEST_BASIC>
-2.0338546308335306

> <JCHEM_POLAR_SURFACE_AREA>
86.63

> <JCHEM_REFRACTIVITY>
48.098600000000005

> <JCHEM_ROTATABLE_BOND_COUNT>
3

> <JCHEM_RULE_OF_FIVE>
1

> <ALOGPS_SOLUBILITY>
4.04e+00 g/l

> <JCHEM_TRADITIONAL_IUPAC>
salicyluric acid

> <JCHEM_VEBER_RULE>
0

> <HMDB_ID>
HMDB00840

> <GENERIC_NAME>
Salicyluric acid

> <SYNONYMS>
((2-hydroxybenzoyl)amino)acetic acid; (2-Hydroxybenzoyl)glycine; 2-Hydroxybenzoylaminoacetate; 2-Hydroxybenzoylaminoacetic acid; 2-Hydroxybenzoylglycine; 2-Hydroxyhippurate; 2-Hydroxyhippuric acid; N-(2-Hydroxybenzoyl)-glycine; N-O-Hydroxybenzoylglycine; N-Salicyloylglycine; O-Hydroxy-Hippurate; O-Hydroxy-Hippuric acid; O-Hydroxyhippurate; O-Hydroxyhippuric acid; Ortho-Hydroxyhippurate; Ortho-Hydroxyhippuric acid; Salicylglycine; Salicyloylglycine; Salicylurate; Salicyluric acid; [(2-Hydroxybenzoyl)amino]acetate; [(2-Hydroxybenzoyl)amino]acetic acid

$$$$
