
  Mrv0541 02231219132D          

 20 23  0  0  1  0            999 V2000
   16.4580   -7.9769    0.0000 N   0  0  0  0  0  0  0  0  0  0  0  0
   15.7225   -7.7383    0.0000 C   0  0  0  0  0  0  0  0  0  0  0  0
   15.7225   -6.9382    0.0000 C   0  0  0  0  0  0  0  0  0  0  0  0
   16.4580   -6.6947    0.0000 N   0  0  0  0  0  0  0  0  0  0  0  0
   16.9252   -7.3408    0.0000 C   0  0  0  0  0  0  0  0  0  0  0  0
   15.0119   -6.5307    0.0000 C   0  0  0  0  0  0  0  0  0  0  0  0
   15.0119   -8.1409    0.0000 N   0  0  0  0  0  0  0  0  0  0  0  0
   14.3409   -6.9382    0.0000 N   0  0  0  0  0  0  0  0  0  0  0  0
   14.3409   -7.7383    0.0000 C   0  0  0  0  0  0  0  0  0  0  0  0
   15.0119   -5.7454    0.0000 N   0  0  0  0  0  0  0  0  0  0  0  0
   16.4580   -9.2590    0.0000 C   0  0  2  0  0  0  0  0  0  0  0  0
   15.1113   -9.2590    0.0000 C   0  0  1  0  0  0  0  0  0  0  0  0
   15.7971   -8.7769    0.0000 O   0  0  0  0  0  0  0  0  0  0  0  0
   15.3796  -10.0542    0.0000 C   0  0  2  0  0  0  0  0  0  0  0  0
   16.2046  -10.0542    0.0000 C   0  0  0  0  0  0  0  0  0  0  0  0
   14.8827  -10.7152    0.0000 O   0  0  0  0  0  0  0  0  0  0  0  0
   14.3261   -9.0056    0.0000 C   0  0  0  0  0  0  0  0  0  0  0  0
   13.7049   -9.5622    0.0000 O   0  0  0  0  0  0  0  0  0  0  0  0
   13.6871   -6.3410    0.0000 C   0  0  0  0  0  0  0  0  0  0  0  0
   14.0990   -5.4969    0.0000 C   0  0  0  0  0  0  0  0  0  0  0  0
  2  1  1  0  0  0  0
  5  1  1  0  0  0  0
 11  1  1  1  0  0  0
  3  2  2  0  0  0  0
  7  2  1  0  0  0  0
  6  3  1  0  0  0  0
  4  3  1  0  0  0  0
  5  4  2  0  0  0  0
 10  6  2  0  0  0  0
  8  6  1  0  0  0  0
  9  7  2  0  0  0  0
  9  8  1  0  0  0  0
 13 11  1  0  0  0  0
 15 11  1  0  0  0  0
 13 12  1  0  0  0  0
 14 12  1  0  0  0  0
 12 17  1  1  0  0  0
 15 14  1  0  0  0  0
 14 16  1  6  0  0  0
 18 17  1  0  0  0  0
 19  8  1  0  0  0  0
 20 10  1  0  0  0  0
 20 19  2  0  0  0  0
M  END
> <DATABASE_ID>
HMDB01786

> <DATABASE_NAME>
hmdb

> <SMILES>
OC[C@H]1O[C@H](C[C@@H]1O)N1C=NC2=C1N=CN1C=CN=C21

> <INCHI_IDENTIFIER>
InChI=1S/C12H13N5O3/c18-4-8-7(19)3-9(20-8)17-6-14-10-11-13-1-2-16(11)5-15-12(10)17/h1-2,5-9,18-19H,3-4H2/t7-,8+,9+/m0/s1

> <INCHI_KEY>
XQQIMTUYVDUWKJ-DJLDLDEBSA-N

> <FORMULA>
C12H13N5O3

> <MOLECULAR_WEIGHT>
275.2633

> <EXACT_MASS>
275.101839307

> <JCHEM_ACCEPTOR_COUNT>
6

> <JCHEM_AVERAGE_POLARIZABILITY>
27.098075913275025

> <JCHEM_BIOAVAILABILITY>
1

> <JCHEM_DONOR_COUNT>
2

> <JCHEM_FORMAL_CHARGE>
0

> <JCHEM_GHOSE_FILTER>
0

> <JCHEM_IUPAC>
(2R,3S,5R)-2-(hydroxymethyl)-5-{3H-imidazo[2,1-f]purin-3-yl}oxolan-3-ol

> <ALOGPS_LOGP>
-1.07

> <JCHEM_LOGP>
-1.4443975519999996

> <ALOGPS_LOGS>
-1.66

> <JCHEM_MDDR_LIKE_RULE>
0

> <JCHEM_NUMBER_OF_RINGS>
4

> <JCHEM_PHYSIOLOGICAL_CHARGE>
0

> <JCHEM_PKA>
14.785104069809588

> <JCHEM_PKA_STRONGEST_ACIDIC>
13.8867434595094

> <JCHEM_PKA_STRONGEST_BASIC>
4.959729910909882

> <JCHEM_POLAR_SURFACE_AREA>
97.70000000000002

> <JCHEM_REFRACTIVITY>
68.08109999999999

> <JCHEM_ROTATABLE_BOND_COUNT>
2

> <JCHEM_RULE_OF_FIVE>
1

> <ALOGPS_SOLUBILITY>
5.98e+00 g/l

> <JCHEM_TRADITIONAL_IUPAC>
ethenodeoxyadenosine

> <JCHEM_VEBER_RULE>
0

> <HMDB_ID>
HMDB01786

> <GENERIC_NAME>
Ethenodeoxyadenosine

> <SYNONYMS>
1,N(6)-Ethenodeoxyadenosine; 1,N6-Etheno-2'-deoxyadenosine; 1,N6-Etheno-dA; 1,N6-Ethenodeoxyadenosine; Ethenodeoxyadenosine; N1,N6-Etheno-2'-deoxyadenosine

$$$$
