L-Acetylcarnitine.mol
  Mrv0541 02231218232D          

 14 13  0  0  0  0            999 V2000
   -0.4125   -1.0164    0.0000 C   0  0  0  0  0  0  0  0  0  0  0  0
    0.0000   -0.3020    0.0000 C   0  0  0  0  0  0  0  0  0  0  0  0
   -0.4125    0.4125    0.0000 C   0  0  0  0  0  0  0  0  0  0  0  0
   -1.2375   -1.0164    0.0000 N   0  3  0  0  0  0  0  0  0  0  0  0
   -1.2375   -1.8414    0.0000 C   0  0  0  0  0  0  0  0  0  0  0  0
   -2.0625   -1.0164    0.0000 C   0  0  0  0  0  0  0  0  0  0  0  0
   -1.2375   -0.1914    0.0000 C   0  0  0  0  0  0  0  0  0  0  0  0
    0.0000    1.1270    0.0000 C   0  0  0  0  0  0  0  0  0  0  0  0
    0.8250    1.1270    0.0000 O   0  0  0  0  0  0  0  0  0  0  0  0
   -0.4125    1.8414    0.0000 O   0  5  0  0  0  0  0  0  0  0  0  0
    0.8250   -0.3020    0.0000 O   0  0  0  0  0  0  0  0  0  0  0  0
    1.2375   -1.0164    0.0000 C   0  0  0  0  0  0  0  0  0  0  0  0
    2.0625   -1.0164    0.0000 O   0  0  0  0  0  0  0  0  0  0  0  0
    0.8250   -1.7309    0.0000 C   0  0  0  0  0  0  0  0  0  0  0  0
  1  2  1  0  0  0  0
  2  3  1  0  0  0  0
  1  4  1  0  0  0  0
  4  5  1  0  0  0  0
  4  6  1  0  0  0  0
  4  7  1  0  0  0  0
  8  9  2  0  0  0  0
  8 10  1  0  0  0  0
  3  8  1  0  0  0  0
 12 13  2  0  0  0  0
 12 14  1  0  0  0  0
 11 12  1  0  0  0  0
  2 11  1  0  0  0  0
M  CHG  2   4   1  10  -1
M  END
> <DATABASE_ID>
HMDB00201

> <DATABASE_NAME>
hmdb

> <SMILES>
CC(=O)OC(CC([O-])=O)C[N+](C)(C)C

> <INCHI_IDENTIFIER>
InChI=1S/C9H17NO4/c1-7(11)14-8(5-9(12)13)6-10(2,3)4/h8H,5-6H2,1-4H3

> <INCHI_KEY>
RDHQFKQIGNGIED-UHFFFAOYSA-N

> <FORMULA>
C9H17NO4

> <MOLECULAR_WEIGHT>
203.2356

> <EXACT_MASS>
203.115758037

> <JCHEM_ACCEPTOR_COUNT>
3

> <JCHEM_AVERAGE_POLARIZABILITY>
20.86860552295526

> <JCHEM_BIOAVAILABILITY>
1

> <JCHEM_DONOR_COUNT>
0

> <JCHEM_FORMAL_CHARGE>
0

> <JCHEM_GHOSE_FILTER>
0

> <JCHEM_IUPAC>
3-(acetyloxy)-4-(trimethylazaniumyl)butanoate

> <ALOGPS_LOGP>
-2.39

> <JCHEM_LOGP>
-4.4463806378050785

> <ALOGPS_LOGS>
-2.86

> <JCHEM_MDDR_LIKE_RULE>
0

> <JCHEM_NUMBER_OF_RINGS>
0

> <JCHEM_PHYSIOLOGICAL_CHARGE>
0

> <JCHEM_PKA_STRONGEST_ACIDIC>
4.089406374301865

> <JCHEM_PKA_STRONGEST_BASIC>
-7.0182421930796055

> <JCHEM_POLAR_SURFACE_AREA>
66.43

> <JCHEM_REFRACTIVITY>
72.63680000000001

> <JCHEM_ROTATABLE_BOND_COUNT>
6

> <JCHEM_RULE_OF_FIVE>
1

> <ALOGPS_SOLUBILITY>
3.55e-01 g/l

> <JCHEM_TRADITIONAL_IUPAC>
alcar

> <JCHEM_VEBER_RULE>
0

> <HMDB_ID>
HMDB00201

> <GENERIC_NAME>
L-Acetylcarnitine

> <SYNONYMS>
(+-)-Acetylcarnitine; (-)-Acetylcarnitine; (R)-Acetylcarnitine; Acetyl-carnitine ; Acetyl-L-(-)-carnitine; Acetyl-L-carnitine; Acetylcarnitine; ALCAR; L-Acetylcarnitine; L-Carnitine acetyl ester; L-O-Acetylcarnitine; Levocarnitine acetyl; Nicetile; O-Acetyl-L-carnitine; O-Acetylcarnitine

$$$$
