
  Mrv0541 02231218322D          

  7  6  0  0  1  0            999 V2000
   16.2546  -10.5118    0.0000 O   0  0  0  0  0  0  0  0  0  0  0  0
   15.5401   -9.2743    0.0000 O   0  0  0  0  0  0  0  0  0  0  0  0
   14.1111  -10.0993    0.0000 N   0  0  0  0  0  0  0  0  0  0  0  0
   14.8256  -10.5118    0.0000 C   0  0  1  0  0  0  0  0  0  0  0  0
   14.8256  -11.3368    0.0000 C   0  0  0  0  0  0  0  0  0  0  0  0
   14.1111  -11.7493    0.0000 C   0  0  0  0  0  0  0  0  0  0  0  0
   15.5401  -10.0993    0.0000 C   0  0  0  0  0  0  0  0  0  0  0  0
  1  7  1  0  0  0  0
  2  7  2  0  0  0  0
  4  3  1  6  0  0  0
  4  5  1  0  0  0  0
  4  7  1  0  0  0  0
  5  6  1  0  0  0  0
M  END
> <DATABASE_ID>
HMDB00452

> <DATABASE_NAME>
hmdb

> <SMILES>
CC[C@H](N)C(O)=O

> <INCHI_IDENTIFIER>
InChI=1S/C4H9NO2/c1-2-3(5)4(6)7/h3H,2,5H2,1H3,(H,6,7)/t3-/m0/s1

> <INCHI_KEY>
QWCKQJZIFLGMSD-VKHMYHEASA-N

> <FORMULA>
C4H9NO2

> <MOLECULAR_WEIGHT>
103.1198

> <EXACT_MASS>
103.063328537

> <JCHEM_ACCEPTOR_COUNT>
3

> <JCHEM_AVERAGE_POLARIZABILITY>
10.337741196722313

> <JCHEM_BIOAVAILABILITY>
1

> <JCHEM_DONOR_COUNT>
2

> <JCHEM_FORMAL_CHARGE>
0

> <JCHEM_GHOSE_FILTER>
0

> <JCHEM_IUPAC>
(2S)-2-aminobutanoic acid

> <ALOGPS_LOGP>
-2.55

> <JCHEM_LOGP>
-2.3181498124844198

> <ALOGPS_LOGS>
0.54

> <JCHEM_MDDR_LIKE_RULE>
0

> <JCHEM_NUMBER_OF_RINGS>
0

> <JCHEM_PHYSIOLOGICAL_CHARGE>
0

> <JCHEM_PKA_STRONGEST_ACIDIC>
2.615755119614637

> <JCHEM_PKA_STRONGEST_BASIC>
9.53467345401491

> <JCHEM_POLAR_SURFACE_AREA>
63.31999999999999

> <JCHEM_REFRACTIVITY>
25.0213

> <JCHEM_ROTATABLE_BOND_COUNT>
2

> <JCHEM_RULE_OF_FIVE>
1

> <ALOGPS_SOLUBILITY>
3.58e+02 g/l

> <JCHEM_TRADITIONAL_IUPAC>
(-)-2-aminobutyric acid

> <JCHEM_VEBER_RULE>
0

> <HMDB_ID>
HMDB00452

> <GENERIC_NAME>
L-Alpha-aminobutyric acid

> <SYNONYMS>
(+)-2-Aminobutanoate; (+)-2-Aminobutanoic acid; (+)-2-Aminobutyric acid; (+)-alpha-Aminobutyric acid; (-)-2-Aminobutyric acid; (2S)-2-aminobutanoate; (2S)-2-aminobutanoic acid; (S)-(+)-alpha-Aminobutyric acid; (S)-2-amino-Butanoate; (S)-2-amino-Butanoic acid; (S)-2-Aminobutanoate; (S)-2-Aminobutanoic acid; (S)-2-Aminobutyric acid; 2-Aminobutanoate; 2-Aminobutanoic acid; 2-Aminobutyrate; 2S-Amino-butanoate; 2S-Amino-butanoic acid; alpha-Aminobutyric acid; L-(+)-2-Aminobutyric acid; L-2-Amino-N-butyric acid; L-2-Aminobuttersaeure; L-2-Aminobutyric acid; L-a-Aminobutyric acid; L-alpha-Amino-N-butyric acid; L-alpha-Aminobutyrate; L-alpha-Aminobutyric acid; L-Butyrine; L-Ethylglycine; S-Butyrine

$$$$
