Propyl alcohol.mol
  Mrv0541 02231218442D          

  9  8  0  0  0  0            999 V2000
    1.0717   -0.2062    0.0000 C   0  0  0  0  0  0  0  0  0  0  0  0
   -0.3572   -0.2063    0.0000 N   0  0  0  0  0  0  0  0  0  0  0  0
    0.3572    0.2062    0.0000 C   0  0  0  0  0  0  0  0  0  0  0  0
    1.0717   -1.0313    0.0000 O   0  0  0  0  0  0  0  0  0  0  0  0
    1.7862    0.2062    0.0000 O   0  0  0  0  0  0  0  0  0  0  0  0
   -1.0717    0.2062    0.0000 C   0  0  0  0  0  0  0  0  0  0  0  0
   -1.0717    1.0313    0.0000 O   0  0  0  0  0  0  0  0  0  0  0  0
   -1.7862   -0.2062    0.0000 C   0  0  0  0  0  0  0  0  0  0  0  0
   -1.7862   -1.0313    0.0000 C   0  0  0  0  0  0  0  0  0  0  0  0
  2  3  1  0  0  0  0
  1  3  1  0  0  0  0
  1  4  2  0  0  0  0
  1  5  1  0  0  0  0
  6  7  2  0  0  0  0
  6  8  1  0  0  0  0
  8  9  1  0  0  0  0
  2  6  1  0  0  0  0
M  END
> <DATABASE_ID>
HMDB00783

> <DATABASE_NAME>
hmdb

> <SMILES>
CCC(=O)NCC(O)=O

> <INCHI_IDENTIFIER>
InChI=1S/C5H9NO3/c1-2-4(7)6-3-5(8)9/h2-3H2,1H3,(H,6,7)(H,8,9)

> <INCHI_KEY>
WOMAZEJKVZLLFE-UHFFFAOYSA-N

> <FORMULA>
C5H9NO3

> <MOLECULAR_WEIGHT>
131.1299

> <EXACT_MASS>
131.058243159

> <JCHEM_ACCEPTOR_COUNT>
3

> <JCHEM_AVERAGE_POLARIZABILITY>
12.585035820761293

> <JCHEM_BIOAVAILABILITY>
1

> <JCHEM_DONOR_COUNT>
2

> <JCHEM_FORMAL_CHARGE>
0

> <JCHEM_GHOSE_FILTER>
0

> <JCHEM_IUPAC>
2-propanamidoacetic acid

> <ALOGPS_LOGP>
-0.44

> <JCHEM_LOGP>
-0.628093107

> <ALOGPS_LOGS>
-0.59

> <JCHEM_MDDR_LIKE_RULE>
0

> <JCHEM_NUMBER_OF_RINGS>
0

> <JCHEM_PHYSIOLOGICAL_CHARGE>
-1

> <JCHEM_PKA>
15.689212481256327

> <JCHEM_PKA_STRONGEST_ACIDIC>
3.934996265211712

> <JCHEM_PKA_STRONGEST_BASIC>
-1.4190001201755802

> <JCHEM_POLAR_SURFACE_AREA>
66.4

> <JCHEM_REFRACTIVITY>
30.0741

> <JCHEM_ROTATABLE_BOND_COUNT>
3

> <JCHEM_RULE_OF_FIVE>
1

> <ALOGPS_SOLUBILITY>
3.34e+01 g/l

> <JCHEM_TRADITIONAL_IUPAC>
propionylglycine

> <JCHEM_VEBER_RULE>
0

> <HMDB_ID>
HMDB00783

> <GENERIC_NAME>
Propionylglycine

> <SYNONYMS>
N-Propionyl-Glycine; N-Propionylglycine; Propionylglycine

$$$$
