
  Mrv0541 02231220182D          

  5  4  0  0  0  0            999 V2000
   15.6007  -12.0678    0.0000 S   0  0  0  0  0  0  0  0  0  0  0  0
   16.3152  -11.6553    0.0000 O   0  0  0  0  0  0  0  0  0  0  0  0
   16.0131  -12.7823    0.0000 O   0  0  0  0  0  0  0  0  0  0  0  0
   14.8862  -12.4803    0.0000 C   0  0  0  0  0  0  0  0  0  0  0  0
   15.1882  -11.3534    0.0000 C   0  0  0  0  0  0  0  0  0  0  0  0
  1  2  2  0  0  0  0
  1  3  2  0  0  0  0
  1  4  1  0  0  0  0
  1  5  1  0  0  0  0
M  END
> <DATABASE_ID>
HMDB04983

> <DATABASE_NAME>
hmdb

> <SMILES>
CS(C)(=O)=O

> <INCHI_IDENTIFIER>
InChI=1S/C2H6O2S/c1-5(2,3)4/h1-2H3

> <INCHI_KEY>
HHVIBTZHLRERCL-UHFFFAOYSA-N

> <FORMULA>
C2H6O2S

> <MOLECULAR_WEIGHT>
94.133

> <EXACT_MASS>
94.008850126

> <JCHEM_ACCEPTOR_COUNT>
2

> <JCHEM_AVERAGE_POLARIZABILITY>
8.602570349100974

> <JCHEM_BIOAVAILABILITY>
1

> <JCHEM_DONOR_COUNT>
0

> <JCHEM_FORMAL_CHARGE>
0

> <JCHEM_GHOSE_FILTER>
0

> <JCHEM_IUPAC>
methanesulfonylmethane

> <ALOGPS_LOGP>
-0.95

> <JCHEM_LOGP>
-1.3009717433333332

> <ALOGPS_LOGS>
-0.23

> <JCHEM_MDDR_LIKE_RULE>
0

> <JCHEM_NUMBER_OF_RINGS>
0

> <JCHEM_PHYSIOLOGICAL_CHARGE>
0

> <JCHEM_POLAR_SURFACE_AREA>
34.14

> <JCHEM_REFRACTIVITY>
20.533

> <JCHEM_ROTATABLE_BOND_COUNT>
0

> <JCHEM_RULE_OF_FIVE>
1

> <ALOGPS_SOLUBILITY>
5.58e+01 g/l

> <JCHEM_TRADITIONAL_IUPAC>
methylsulfonylmethane

> <JCHEM_VEBER_RULE>
1

> <HMDB_ID>
HMDB04983

> <GENERIC_NAME>
Dimethyl sulfone

> <SYNONYMS>
(methylsulfonyl)methane; Dimethyl sulfone; Dimethyl sulphone; Dimethylsulfone; Lignisul MSM; Methyl sulfone; Methylsulfonylmethane; Opti MSM; Sulfonylbis-methane; Sulfonylbismethane; Sulphonylbismethane

$$$$
