
  Mrv0541 02231219132D          

 12 12  0  0  0  0            999 V2000
    9.6440  -18.0241    0.0000 C   0  0  0  0  0  0  0  0  0  0  0  0
   10.0565  -17.3096    0.0000 C   0  0  0  0  0  0  0  0  0  0  0  0
   10.0565  -18.7386    0.0000 C   0  0  0  0  0  0  0  0  0  0  0  0
   11.2940  -16.5952    0.0000 C   0  0  0  0  0  0  0  0  0  0  0  0
   12.1190  -16.5952    0.0000 C   0  0  0  0  0  0  0  0  0  0  0  0
   11.2940  -18.0241    0.0000 C   0  0  0  0  0  0  0  0  0  0  0  0
   10.8815  -17.3096    0.0000 C   0  0  0  0  0  0  0  0  0  0  0  0
   10.8815  -18.7386    0.0000 C   0  0  0  0  0  0  0  0  0  0  0  0
   12.5315  -15.8807    0.0000 C   0  0  0  0  0  0  0  0  0  0  0  0
   11.2940  -19.4531    0.0000 O   0  0  0  0  0  0  0  0  0  0  0  0
   12.1190  -15.1662    0.0000 O   0  0  0  0  0  0  0  0  0  0  0  0
   13.3565  -15.8807    0.0000 O   0  0  0  0  0  0  0  0  0  0  0  0
  1  3  2  0  0  0  0
  1  2  1  0  0  0  0
  2  7  2  0  0  0  0
  3  8  1  0  0  0  0
  4  7  1  0  0  0  0
  4  5  2  0  0  0  0
  5  9  1  0  0  0  0
  6  7  1  0  0  0  0
  6  8  2  0  0  0  0
  8 10  1  0  0  0  0
  9 11  1  0  0  0  0
  9 12  2  0  0  0  0
M  END
> <DATABASE_ID>
HMDB01713

> <DATABASE_NAME>
hmdb

> <SMILES>
OC(=O)\C=C\C1=CC=CC(O)=C1

> <INCHI_IDENTIFIER>
InChI=1S/C9H8O3/c10-8-3-1-2-7(6-8)4-5-9(11)12/h1-6,10H,(H,11,12)/b5-4+

> <INCHI_KEY>
KKSDGJDHHZEWEP-SNAWJCMRSA-N

> <FORMULA>
C9H8O3

> <MOLECULAR_WEIGHT>
164.158

> <EXACT_MASS>
164.047344122

> <JCHEM_ACCEPTOR_COUNT>
3

> <JCHEM_AVERAGE_POLARIZABILITY>
16.372564477573466

> <JCHEM_BIOAVAILABILITY>
1

> <JCHEM_DONOR_COUNT>
2

> <JCHEM_FORMAL_CHARGE>
0

> <JCHEM_GHOSE_FILTER>
1

> <JCHEM_IUPAC>
(2E)-3-(3-hydroxyphenyl)prop-2-enoic acid

> <ALOGPS_LOGP>
1.71

> <JCHEM_LOGP>
1.832520938333333

> <ALOGPS_LOGS>
-2.20

> <JCHEM_MDDR_LIKE_RULE>
0

> <JCHEM_NUMBER_OF_RINGS>
1

> <JCHEM_PHYSIOLOGICAL_CHARGE>
-1

> <JCHEM_PKA>
9.42942136236343

> <JCHEM_PKA_STRONGEST_ACIDIC>
4.014955066115015

> <JCHEM_PKA_STRONGEST_BASIC>
-5.9719429291949035

> <JCHEM_POLAR_SURFACE_AREA>
57.53

> <JCHEM_REFRACTIVITY>
45.040800000000004

> <JCHEM_ROTATABLE_BOND_COUNT>
2

> <JCHEM_RULE_OF_FIVE>
1

> <ALOGPS_SOLUBILITY>
1.04e+00 g/l

> <JCHEM_TRADITIONAL_IUPAC>
m-coumaric acid

> <JCHEM_VEBER_RULE>
0

> <HMDB_ID>
HMDB01713

> <GENERIC_NAME>
m-Coumaric acid

> <SYNONYMS>
(2E)-3-(3-hydroxyphenyl)-2-propenoate; (2E)-3-(3-hydroxyphenyl)-2-propenoic acid; (2E)-3-(3-hydroxyphenyl)acrylic acid; (2E)-3-(3-hydroxyphenyl)prop-2-enoate; (2E)-3-(3-hydroxyphenyl)prop-2-enoic acid; (E)-3-(3-hydroxyphenyl)-2-propenoate; (E)-3-(3-hydroxyphenyl)-2-propenoic acid; 3'-Hydroxycinnamate; 3'-Hydroxycinnamic acid; 3-(3-Hydroxyphenyl)-2-Propenoate; 3-(3-Hydroxyphenyl)-2-Propenoic acid; 3-(3-Hydroxyphenyl)acrylate; 3-(3-Hydroxyphenyl)acrylic acid; 3-(3-Hydroxyphenyl)acrylsaeure; 3-(3-Hydroxyphenyl)prop-2-enoate; 3-(3-Hydroxyphenyl)prop-2-enoic acid; 3-Coumarate; 3-Coumaric acid; 3-Hydroxycinnamate; 3-Hydroxycinnamic acid; m-Coumarate; m-Hydroxy-Cinnamate; m-Hydroxy-Cinnamic acid; m-Hydroxycinnamate; m-Hydroxycinnamic acid; trans-3-Coumaric acid; trans-3-Hydroxycinnamate; trans-3-Hydroxycinnamic acid

$$$$
