640
  Mrv0541 02231214512D          

 19 21  0  0  1  0            999 V2000
    4.9010    0.6808    0.0000 O   0  0  0  0  0  0  0  0  0  0  0  0
    2.8071    1.0969    0.0000 O   0  0  0  0  0  0  0  0  0  0  0  0
    3.8647    2.5471    0.0000 O   0  0  0  0  0  0  0  0  0  0  0  0
    6.3238    1.6527    0.0000 O   0  0  0  0  0  0  0  0  0  0  0  0
    3.8597   -0.3570    0.0000 N   0  0  0  0  0  0  0  0  0  0  0  0
    3.8597   -1.6848    0.0000 N   0  0  0  0  0  0  0  0  0  0  0  0
    2.3645   -0.1959    0.0000 N   0  0  0  0  0  0  0  0  0  0  0  0
    1.6500   -1.4335    0.0000 N   0  0  0  0  0  0  0  0  0  0  0  0
    2.3645   -2.6710    0.0000 N   0  0  0  0  0  0  0  0  0  0  0  0
    3.6321    1.0955    0.0000 C   0  0  1  0  0  0  0  0  0  0  0  0
    4.1159    0.4272    0.0000 C   0  0  1  0  0  0  0  0  0  0  0  0
    4.1182    1.7621    0.0000 C   0  0  1  0  0  0  0  0  0  0  0  0
    4.9025    1.5058    0.0000 C   0  0  1  0  0  0  0  0  0  0  0  0
    5.5707    1.9896    0.0000 C   0  0  0  0  0  0  0  0  0  0  0  0
    3.0790   -0.6084    0.0000 C   0  0  0  0  0  0  0  0  0  0  0  0
    4.3411   -1.0210    0.0000 C   0  0  0  0  0  0  0  0  0  0  0  0
    3.0790   -1.4335    0.0000 C   0  0  0  0  0  0  0  0  0  0  0  0
    2.3645   -1.8460    0.0000 C   0  0  0  0  0  0  0  0  0  0  0  0
    1.6500   -0.6084    0.0000 C   0  0  0  0  0  0  0  0  0  0  0  0
  1 11  1  0  0  0  0
  1 13  1  0  0  0  0
 10  2  1  6  0  0  0
 12  3  1  6  0  0  0
  4 14  1  0  0  0  0
 11  5  1  1  0  0  0
  5 15  1  0  0  0  0
  5 16  1  0  0  0  0
  6 16  2  0  0  0  0
  6 17  1  0  0  0  0
  7 15  2  0  0  0  0
  7 19  1  0  0  0  0
  8 18  1  0  0  0  0
  8 19  2  0  0  0  0
  9 18  1  0  0  0  0
 10 11  1  0  0  0  0
 10 12  1  0  0  0  0
 12 13  1  0  0  0  0
 13 14  1  1  0  0  0
 15 17  1  0  0  0  0
 17 18  2  0  0  0  0
M  END
> <DATABASE_ID>
HMDB00050

> <DATABASE_NAME>
hmdb

> <SMILES>
NC1=C2N=CN([C@@H]3O[C@H](CO)[C@@H](O)[C@H]3O)C2=NC=N1

> <INCHI_IDENTIFIER>
InChI=1S/C10H13N5O4/c11-8-5-9(13-2-12-8)15(3-14-5)10-7(18)6(17)4(1-16)19-10/h2-4,6-7,10,16-18H,1H2,(H2,11,12,13)/t4-,6-,7-,10-/m1/s1

> <INCHI_KEY>
OIRDTQYFTABQOQ-KQYNXXCUSA-N

> <FORMULA>
C10H13N5O4

> <MOLECULAR_WEIGHT>
267.2413

> <EXACT_MASS>
267.096753929

> <JCHEM_ACCEPTOR_COUNT>
8

> <JCHEM_AVERAGE_POLARIZABILITY>
25.27062126268948

> <JCHEM_BIOAVAILABILITY>
1

> <JCHEM_DONOR_COUNT>
4

> <JCHEM_FORMAL_CHARGE>
0

> <JCHEM_GHOSE_FILTER>
0

> <JCHEM_IUPAC>
(2R,3R,4S,5R)-2-(6-amino-9H-purin-9-yl)-5-(hydroxymethyl)oxolane-3,4-diol

> <ALOGPS_LOGP>
-1.21

> <JCHEM_LOGP>
-2.0909638716666668

> <ALOGPS_LOGS>
-1.28

> <JCHEM_MDDR_LIKE_RULE>
0

> <JCHEM_NUMBER_OF_RINGS>
3

> <JCHEM_PHYSIOLOGICAL_CHARGE>
0

> <JCHEM_PKA>
13.891216627250436

> <JCHEM_PKA_STRONGEST_ACIDIC>
12.454003289052789

> <JCHEM_PKA_STRONGEST_BASIC>
4.9884408144871495

> <JCHEM_POLAR_SURFACE_AREA>
139.54

> <JCHEM_REFRACTIVITY>
63.1956

> <JCHEM_ROTATABLE_BOND_COUNT>
2

> <JCHEM_RULE_OF_FIVE>
1

> <ALOGPS_SOLUBILITY>
1.40e+01 g/l

> <JCHEM_TRADITIONAL_IUPAC>
adenosine

> <JCHEM_VEBER_RULE>
0

> <HMDB_ID>
HMDB00050

> <GENERIC_NAME>
Adenosine

> <SYNONYMS>
1-(6-Amino-9H-purin-9-yl)-1-deoxy-beta-D-Ribofuranose; 1-(6-Amino-9H-purin-9-yl)-1-deoxy-beta-delta-Ribofuranose; 6-Amino-9beta-D-ribofuranosyl-9H-purine; 6-Amino-9beta-delta-ribofuranosyl-9H-purine; 9-beta-D-Arabinofuranosyladenine; 9-beta-D-Ribofuranosidoadenine; 9-beta-D-Ribofuranosyl-9H-purin-6-amine; 9-beta-D-Ribofuranosyladenine; 9-beta-delta-Arabinofuranosyladenine; 9-beta-delta-Ribofuranosidoadenine; 9-beta-delta-Ribofuranosyl-9H-purin-6-amine; 9-beta-delta-Ribofuranosyladenine; 9beta-D-ribofuranosyl-9H-Purin-6-amine; 9beta-D-Ribofuranosyladenine; 9beta-delta-ribofuranosyl-9H-Purin-6-amine; 9beta-delta-Ribofuranosyladenine; Adenine nucleoside; Adenine riboside; Adenine-9beta-D-Ribofuranoside; Adenine-9beta-delta-Ribofuranoside; Adenocard; Adenocor; Adenoscan; Adenosin; b-D-Adenosine; beta-Adenosine; beta-D-Adenosine; beta-delta-Adenosine; Boniton; Myocol; Nucleocardyl; Sandesin

$$$$
