
  Mrv0541 02231219512D          

 11 11  0  0  1  0            999 V2000
    0.0000   -1.0491    0.0000 C   0  0  0  0  0  0  0  0  0  0  0  0
    0.0000   -0.2228    0.0000 C   0  0  2  0  0  0  0  0  0  0  0  0
   -0.7131   -1.4639    0.0000 C   0  0  0  0  0  0  0  0  0  0  0  0
    0.7166   -1.4606    0.0000 C   0  0  0  0  0  0  0  0  0  0  0  0
   -0.0034   -1.8685    0.0000 O   0  0  0  0  0  0  0  0  0  0  0  0
   -0.7166    0.1851    0.0000 C   0  0  0  0  0  0  0  0  0  0  0  0
    0.7131    0.1851    0.0000 C   0  0  0  0  0  0  0  0  0  0  0  0
   -0.7166    1.0114    0.0000 C   0  0  0  0  0  0  0  0  0  0  0  0
    0.7131    1.0114    0.0000 C   0  0  0  0  0  0  0  0  0  0  0  0
    0.0000    1.4263    0.0000 C   0  0  0  0  0  0  0  0  0  0  0  0
    0.0000    2.2491    0.0000 C   0  0  0  0  0  0  0  0  0  0  0  0
  2  1  1  6  0  0  0
  1  3  1  0  0  0  0
  1  4  1  0  0  0  0
  1  5  1  0  0  0  0
  2  6  1  0  0  0  0
  2  7  1  0  0  0  0
  6  8  1  0  0  0  0
  7  9  1  0  0  0  0
  8 10  1  0  0  0  0
 10 11  1  0  0  0  0
  9 10  2  0  0  0  0
M  END
> <DATABASE_ID>
HMDB04043

> <DATABASE_NAME>
hmdb

> <SMILES>
CC1=CC[C@@H](CC1)C(C)(C)O

> <INCHI_IDENTIFIER>
InChI=1S/C10H18O/c1-8-4-6-9(7-5-8)10(2,3)11/h4,9,11H,5-7H2,1-3H3/t9-/m0/s1

> <INCHI_KEY>
WUOACPNHFRMFPN-VIFPVBQESA-N

> <FORMULA>
C10H18O

> <MOLECULAR_WEIGHT>
154.2493

> <EXACT_MASS>
154.135765198

> <JCHEM_ACCEPTOR_COUNT>
1

> <JCHEM_AVERAGE_POLARIZABILITY>
19.0675371229632

> <JCHEM_BIOAVAILABILITY>
1

> <JCHEM_DONOR_COUNT>
1

> <JCHEM_FORMAL_CHARGE>
0

> <JCHEM_GHOSE_FILTER>
0

> <JCHEM_IUPAC>
2-[(1R)-4-methylcyclohex-3-en-1-yl]propan-2-ol

> <ALOGPS_LOGP>
3.17

> <JCHEM_LOGP>
2.1742975076666666

> <ALOGPS_LOGS>
-2.00

> <JCHEM_MDDR_LIKE_RULE>
0

> <JCHEM_NUMBER_OF_RINGS>
1

> <JCHEM_PHYSIOLOGICAL_CHARGE>
0

> <JCHEM_PKA_STRONGEST_ACIDIC>
19.402266970394027

> <JCHEM_PKA_STRONGEST_BASIC>
-0.8732484271496527

> <JCHEM_POLAR_SURFACE_AREA>
20.23

> <JCHEM_REFRACTIVITY>
48.4619

> <JCHEM_ROTATABLE_BOND_COUNT>
1

> <JCHEM_RULE_OF_FIVE>
1

> <ALOGPS_SOLUBILITY>
1.56e+00 g/l

> <JCHEM_TRADITIONAL_IUPAC>
(+)-Î±-terpineol

> <JCHEM_VEBER_RULE>
1

> <HMDB_ID>
HMDB04043

> <GENERIC_NAME>
Alpha-Terpineol

> <SYNONYMS>
(+)-alpha-terpineol; (+)-p-menth-1-en-8-ol; (6R)-p-menth-1-en-8-ol; (R)-(+)-alpha-terpineol; (R)-2-(4-Methyl-3-cyclohexenyl)isopropanol; (R)-p-Menth-1-en-8-ol; (S)-(-)-p-Menth-1-en-8-ol; 1-alpha-Terpineol; 2-(4-Methyl-3-cyclohexen-1-yl)-2-propanol; 2-(4-Methylcyclohex-3-en-1-yl)propan-2-ol; 2-(4-Methylcyclohex-3-enyl)propan-2-ol (alpha-terpineol); 2-[(1R)-4-Methylcyclohex-3-en-1-yl]propan-2-ol; alpha,alpha,4-Trimethyl-3-Cyclohexene-1-methanol; alpha-Terpinenol; alpha-Terpineol; alpha-Terpineole; alpha-Terpinol; L-alpha-Terpineol; Lily of valley; Terpenol; Terpineol; Terpineol schlechthin

$$$$
