
  Mrv0541 02231218492D          

 31 34  0  0  1  0            999 V2000
    0.2279   -0.2659    0.0000 C   0  0  1  0  0  0  0  0  0  0  0  0
   -0.4799   -0.6872    0.0000 C   0  0  1  0  0  0  0  0  0  0  0  0
    0.2210    0.5593    0.0000 C   0  0  1  0  0  0  0  0  0  0  0  0
    1.0083   -0.5145    0.0000 C   0  0  0  0  0  0  0  0  0  0  0  0
   -1.2017   -0.2797    0.0000 C   0  0  1  0  0  0  0  0  0  0  0  0
   -0.4730   -1.5193    0.0000 C   0  0  0  0  0  0  0  0  0  0  0  0
    1.0014    0.8115    0.0000 C   0  0  2  0  0  0  0  0  0  0  0  0
   -0.4973    0.9600    0.0000 C   0  0  0  0  0  0  0  0  0  0  0  0
    0.3591    1.3743    0.0000 C   0  0  0  0  0  0  0  0  0  0  0  0
    1.4745    0.1519    0.0000 C   0  0  0  0  0  0  0  0  0  0  0  0
   -1.9131   -0.6976    0.0000 C   0  0  2  0  0  0  0  0  0  0  0  0
   -1.2086    0.5455    0.0000 C   0  0  0  0  0  0  0  0  0  0  0  0
   -1.2017   -1.9476    0.0000 C   0  0  0  0  0  0  0  0  0  0  0  0
    1.2742    1.6057    0.0000 C   0  0  1  0  0  0  0  0  0  0  0  0
   -1.9131   -1.5262    0.0000 C   0  0  0  0  0  0  0  0  0  0  0  0
   -2.6244   -0.2797    0.0000 C   0  0  0  0  0  0  0  0  0  0  0  0
   -1.9131    0.1278    0.0000 C   0  0  0  0  0  0  0  0  0  0  0  0
    2.0823    1.7577    0.0000 C   0  0  0  0  0  0  0  0  0  0  0  0
    0.7356    2.2273    0.0000 C   0  0  0  0  0  0  0  0  0  0  0  0
   -2.6244   -1.9476    0.0000 C   0  0  0  0  0  0  0  0  0  0  0  0
   -3.3393   -0.6872    0.0000 C   0  0  0  0  0  0  0  0  0  0  0  0
    2.6175    1.1326    0.0000 C   0  0  0  0  0  0  0  0  0  0  0  0
   -3.3393   -1.5401    0.0000 C   0  0  0  0  0  0  0  0  0  0  0  0
    3.4152    1.2811    0.0000 C   0  0  0  0  0  0  0  0  0  0  0  0
   -4.0610   -1.9821    0.0000 O   0  0  0  0  0  0  0  0  0  0  0  0
    3.9504    0.6527    0.0000 C   0  0  0  0  0  0  0  0  0  0  0  0
    3.6569   -0.1209    0.0000 C   0  0  0  0  0  0  0  0  0  0  0  0
    4.7585    0.8012    0.0000 C   0  0  0  0  0  0  0  0  0  0  0  0
    0.2348   -1.0913    0.0000 H   0  0  0  0  0  0  0  0  0  0  0  0
   -0.4904    0.1381    0.0000 H   0  0  0  0  0  0  0  0  0  0  0  0
   -1.1914   -1.1154    0.0000 H   0  0  0  0  0  0  0  0  0  0  0  0
  1  2  1  0  0  0  0
  1  3  1  0  0  0  0
  1  4  1  0  0  0  0
  2  5  1  0  0  0  0
  2  6  1  0  0  0  0
  3  7  1  0  0  0  0
  3  8  1  0  0  0  0
  3  9  1  1  0  0  0
  4 10  1  0  0  0  0
  5 11  1  0  0  0  0
  5 12  1  0  0  0  0
  6 13  1  0  0  0  0
  7 14  1  0  0  0  0
 11 15  1  0  0  0  0
 11 16  1  0  0  0  0
 11 17  1  1  0  0  0
 14 18  1  0  0  0  0
 14 19  1  6  0  0  0
 15 20  2  0  0  0  0
 16 21  1  0  0  0  0
 18 22  1  0  0  0  0
 20 23  1  0  0  0  0
 22 24  1  0  0  0  0
 23 25  2  0  0  0  0
 24 26  1  0  0  0  0
 26 27  1  0  0  0  0
 26 28  1  0  0  0  0
  7 10  1  1  0  0  0
  8 12  1  0  0  0  0
 13 15  1  0  0  0  0
 21 23  1  0  0  0  0
  1 29  1  6  0  0  0
  2 30  1  1  0  0  0
  5 31  1  6  0  0  0
M  END
> <DATABASE_ID>
HMDB00921

> <DATABASE_NAME>
hmdb

> <SMILES>
[H][C@@]12CC[C@H]([C@H](C)CCCC(C)C)[C@@]1(C)CC[C@@]1([H])[C@@]2([H])CCC2=CC(=O)CC[C@]12C

> <INCHI_IDENTIFIER>
InChI=1S/C27H44O/c1-18(2)7-6-8-19(3)23-11-12-24-22-10-9-20-17-21(28)13-15-26(20,4)25(22)14-16-27(23,24)5/h17-19,22-25H,6-16H2,1-5H3/t19-,22+,23-,24+,25+,26+,27-/m1/s1

> <INCHI_KEY>
NYOXRYYXRWJDKP-GYKMGIIDSA-N

> <FORMULA>
C27H44O

> <MOLECULAR_WEIGHT>
384.6377

> <EXACT_MASS>
384.33921603

> <JCHEM_ACCEPTOR_COUNT>
1

> <JCHEM_AVERAGE_POLARIZABILITY>
49.784375917205935

> <JCHEM_BIOAVAILABILITY>
1

> <JCHEM_DONOR_COUNT>
0

> <JCHEM_FORMAL_CHARGE>
0

> <JCHEM_GHOSE_FILTER>
0

> <JCHEM_IUPAC>
(1S,2R,10S,11S,14R,15R)-2,15-dimethyl-14-[(2R)-6-methylheptan-2-yl]tetracyclo[8.7.0.0²,⁷.0¹¹,¹⁵]heptadec-6-en-5-one

> <ALOGPS_LOGP>
6.57

> <JCHEM_LOGP>
7.680134978666665

> <ALOGPS_LOGS>
-7.23

> <JCHEM_MDDR_LIKE_RULE>
0

> <JCHEM_NUMBER_OF_RINGS>
4

> <JCHEM_PHYSIOLOGICAL_CHARGE>
0

> <JCHEM_PKA_STRONGEST_ACIDIC>
19.087826253912564

> <JCHEM_PKA_STRONGEST_BASIC>
-4.817440235063846

> <JCHEM_POLAR_SURFACE_AREA>
17.07

> <JCHEM_REFRACTIVITY>
119.56509999999997

> <JCHEM_ROTATABLE_BOND_COUNT>
5

> <JCHEM_RULE_OF_FIVE>
0

> <ALOGPS_SOLUBILITY>
2.27e-05 g/l

> <JCHEM_TRADITIONAL_IUPAC>
cholestenone

> <JCHEM_VEBER_RULE>
1

> <HMDB_ID>
HMDB00921

> <GENERIC_NAME>
Cholestenone

> <SYNONYMS>
(17b)-17-Octylandrost-4-en-3-one; 3-Oxocholest-4-ene; 4-Cholesten-3-one; Cholest-4-en-3-one; D4-Cholesten-3-one; D4-Cholestenone

$$$$
