
  Mrv0541 02231219372D          

 24 24  0  0  1  0            999 V2000
   15.1677  -11.6059    0.0000 C   0  0  2  0  0  0  0  0  0  0  0  0
   15.1677  -12.4309    0.0000 C   0  0  2  0  0  0  0  0  0  0  0  0
   15.8822  -12.8434    0.0000 C   0  0  1  0  0  0  0  0  0  0  0  0
   16.5967  -12.4309    0.0000 C   0  0  2  0  0  0  0  0  0  0  0  0
   16.5967  -11.6059    0.0000 O   0  0  0  0  0  0  0  0  0  0  0  0
   15.8822  -11.1934    0.0000 C   0  0  2  0  0  0  0  0  0  0  0  0
   15.8822  -10.3684    0.0000 O   0  0  0  0  0  0  0  0  0  0  0  0
   14.4533  -11.1934    0.0000 O   0  0  0  0  0  0  0  0  0  0  0  0
   16.5967   -9.9559    0.0000 C   0  0  1  0  0  0  0  0  0  0  0  0
   17.3112  -10.3684    0.0000 C   0  0  2  0  0  0  0  0  0  0  0  0
   16.5967   -9.1309    0.0000 C   0  0  2  0  0  0  0  0  0  0  0  0
   17.3112   -8.7184    0.0000 O   0  0  0  0  0  0  0  0  0  0  0  0
   15.8822   -8.7184    0.0000 C   0  0  0  0  0  0  0  0  0  0  0  0
   15.1677   -9.1309    0.0000 O   0  0  0  0  0  0  0  0  0  0  0  0
   17.3112  -11.1934    0.0000 O   0  0  0  0  0  0  0  0  0  0  0  0
   18.0257   -9.9559    0.0000 C   0  0  1  0  0  0  0  0  0  0  0  0
   18.0257   -9.1309    0.0000 O   0  0  0  0  0  0  0  0  0  0  0  0
   18.7401  -10.3684    0.0000 C   0  0  0  0  0  0  0  0  0  0  0  0
   19.4546   -9.9559    0.0000 O   0  0  0  0  0  0  0  0  0  0  0  0
   15.8822  -13.6684    0.0000 O   0  0  0  0  0  0  0  0  0  0  0  0
   14.4533  -12.8434    0.0000 O   0  0  0  0  0  0  0  0  0  0  0  0
   17.3112  -12.8434    0.0000 C   0  0  0  0  0  0  0  0  0  0  0  0
   18.0257  -12.4309    0.0000 O   0  0  0  0  0  0  0  0  0  0  0  0
   15.8822   -9.5434    0.0000 H   0  0  0  0  0  0  0  0  0  0  0  0
  1  2  1  0  0  0  0
  2  3  1  0  0  0  0
  3  4  1  0  0  0  0
  4  5  1  0  0  0  0
  5  6  1  0  0  0  0
  6  1  1  0  0  0  0
  6  7  1  1  0  0  0
  1  8  1  1  0  0  0
  7  9  1  0  0  0  0
  9 10  1  0  0  0  0
  9 11  1  0  0  0  0
 11 12  1  1  0  0  0
 11 13  1  0  0  0  0
 13 14  1  0  0  0  0
 10 15  1  1  0  0  0
 10 16  1  0  0  0  0
 16 17  1  1  0  0  0
 16 18  1  0  0  0  0
 18 19  1  0  0  0  0
  3 20  1  1  0  0  0
  2 21  1  6  0  0  0
  4 22  1  6  0  0  0
 22 23  1  0  0  0  0
  9 24  1  1  0  0  0
M  END
> <DATABASE_ID>
HMDB02928

> <DATABASE_NAME>
hmdb

> <SMILES>
[H][C@@](O[C@H]1O[C@H](CO)[C@@H](O)[C@H](O)[C@H]1O)([C@H](O)CO)[C@H](O)[C@@H](O)CO

> <INCHI_IDENTIFIER>
InChI=1S/C12H24O11/c13-1-4(16)7(18)11(5(17)2-14)23-12-10(21)9(20)8(19)6(3-15)22-12/h4-21H,1-3H2/t4-,5+,6+,7+,8+,9-,10+,11+,12+/m0/s1

> <INCHI_KEY>
VQHSOMBJVWLPSR-WUJBLJFYSA-N

> <FORMULA>
C12H24O11

> <MOLECULAR_WEIGHT>
344.3124

> <EXACT_MASS>
344.13186161

> <JCHEM_ACCEPTOR_COUNT>
11

> <JCHEM_AVERAGE_POLARIZABILITY>
31.733831126130244

> <JCHEM_BIOAVAILABILITY>
0

> <JCHEM_DONOR_COUNT>
9

> <JCHEM_FORMAL_CHARGE>
0

> <JCHEM_GHOSE_FILTER>
0

> <JCHEM_IUPAC>
(2S,3R,4R,5R)-4-{[(2R,3R,4S,5S,6R)-3,4,5-trihydroxy-6-(hydroxymethyl)oxan-2-yl]oxy}hexane-1,2,3,5,6-pentol

> <ALOGPS_LOGP>
-3.18

> <JCHEM_LOGP>
-5.500854494333333

> <ALOGPS_LOGS>
0.04

> <JCHEM_MDDR_LIKE_RULE>
0

> <JCHEM_NUMBER_OF_RINGS>
1

> <JCHEM_PHYSIOLOGICAL_CHARGE>
0

> <JCHEM_PKA>
12.710069436426757

> <JCHEM_PKA_STRONGEST_ACIDIC>
12.099718922094596

> <JCHEM_PKA_STRONGEST_BASIC>
-2.974505917782067

> <JCHEM_POLAR_SURFACE_AREA>
200.52999999999997

> <JCHEM_REFRACTIVITY>
70.81689999999999

> <JCHEM_ROTATABLE_BOND_COUNT>
8

> <JCHEM_RULE_OF_FIVE>
0

> <ALOGPS_SOLUBILITY>
3.77e+02 g/l

> <JCHEM_TRADITIONAL_IUPAC>
maltitol

> <JCHEM_VEBER_RULE>
0

> <HMDB_ID>
HMDB02928

> <GENERIC_NAME>
Maltitol

> <SYNONYMS>
4-O-alpha-D-Glucopyranosyl-D-glucitol; 4-O-alpha-delta-Glucopyranosyl-delta-glucitol; Amalti Syrup; Amalty MR 100; D-4-O-alpha-D-Glucopyranosylglucitol; D-Maltitol; delta-4-O-alpha-delta-Glucopyranosylglucitol; delta-Maltitol; Malbit; Malti Mr; Maltisorb; Maltit; Maltitol

$$$$
