Bilirubin.mol
  Mrv0541 02231218192D          

 43 46  0  0  0  0            999 V2000
   -2.7207    2.8037    0.0000 C   0  0  0  0  0  0  0  0  0  0  0  0
   -3.0083    2.0455    0.0000 C   0  0  0  0  0  0  0  0  0  0  0  0
   -2.3711    1.5198    0.0000 N   0  0  0  0  0  0  0  0  0  0  0  0
   -1.6760    1.9632    0.0000 C   0  0  0  0  0  0  0  0  0  0  0  0
   -1.8821    2.7621    0.0000 C   0  0  0  0  0  0  0  0  0  0  0  0
   -3.8072    1.8394    0.0000 O   0  0  0  0  0  0  0  0  0  0  0  0
   -3.1332    3.5182    0.0000 C   0  0  0  0  0  0  0  0  0  0  0  0
   -1.3569    3.3983    0.0000 C   0  0  0  0  0  0  0  0  0  0  0  0
   -0.5434    3.2617    0.0000 C   0  0  0  0  0  0  0  0  0  0  0  0
   -0.9084    1.6609    0.0000 C   0  0  0  0  0  0  0  0  0  0  0  0
   -0.7864    0.8450    0.0000 C   0  0  0  0  0  0  0  0  0  0  0  0
   -1.3744    0.2664    0.0000 C   0  0  0  0  0  0  0  0  0  0  0  0
   -1.0058   -0.4717    0.0000 C   0  0  0  0  0  0  0  0  0  0  0  0
   -0.1924   -0.3515    0.0000 C   0  0  0  0  0  0  0  0  0  0  0  0
   -0.0545    0.4634    0.0000 N   0  0  0  0  0  0  0  0  0  0  0  0
   -2.1882    0.4020    0.0000 C   0  0  0  0  0  0  0  0  0  0  0  0
   -1.3862   -1.2037    0.0000 C   0  0  0  0  0  0  0  0  0  0  0  0
   -0.9425   -1.8992    0.0000 C   0  0  0  0  0  0  0  0  0  0  0  0
   -1.3229   -2.6313    0.0000 C   0  0  0  0  0  0  0  0  0  0  0  0
   -2.1479   -2.6313    0.0000 O   0  0  0  0  0  0  0  0  0  0  0  0
   -0.9104   -3.3457    0.0000 O   0  0  0  0  0  0  0  0  0  0  0  0
    0.3909   -0.9349    0.0000 C   0  0  0  0  0  0  0  0  0  0  0  0
    1.1854   -0.7237    0.0000 C   0  0  0  0  0  0  0  0  0  0  0  0
    1.8269   -1.2425    0.0000 C   0  0  0  0  0  0  0  0  0  0  0  0
    2.5179   -0.8043    0.0000 C   0  0  0  0  0  0  0  0  0  0  0  0
    2.3107   -0.0057    0.0000 C   0  0  0  0  0  0  0  0  0  0  0  0
    1.4880    0.0431    0.0000 N   0  0  0  0  0  0  0  0  0  0  0  0
    3.2883   -1.0995    0.0000 C   0  0  0  0  0  0  0  0  0  0  0  0
    1.7842   -2.0664    0.0000 C   0  0  0  0  0  0  0  0  0  0  0  0
    2.4764   -2.5153    0.0000 C   0  0  0  0  0  0  0  0  0  0  0  0
    2.4764   -3.3403    0.0000 C   0  0  0  0  0  0  0  0  0  0  0  0
    1.7620   -3.7527    0.0000 O   0  0  0  0  0  0  0  0  0  0  0  0
    3.1909   -3.7527    0.0000 O   0  0  0  0  0  0  0  0  0  0  0  0
    2.8292    0.6361    0.0000 C   0  0  0  0  0  0  0  0  0  0  0  0
    2.5326    1.4059    0.0000 C   0  0  0  0  0  0  0  0  0  0  0  0
    2.9833    2.0969    0.0000 C   0  0  0  0  0  0  0  0  0  0  0  0
    2.4653    2.7391    0.0000 C   0  0  0  0  0  0  0  0  0  0  0  0
    1.6919    2.4346    0.0000 C   0  0  0  0  0  0  0  0  0  0  0  0
    1.7344    1.6160    0.0000 N   0  0  0  0  0  0  0  0  0  0  0  0
    3.8072    2.1385    0.0000 C   0  0  0  0  0  0  0  0  0  0  0  0
    0.9982    2.8812    0.0000 O   0  0  0  0  0  0  0  0  0  0  0  0
    2.6762    3.5366    0.0000 C   0  0  0  0  0  0  0  0  0  0  0  0
    3.4724    3.7527    0.0000 C   0  0  0  0  0  0  0  0  0  0  0  0
  1  2  1  0  0  0  0
  2  3  1  0  0  0  0
  3  4  1  0  0  0  0
  4  5  1  0  0  0  0
  5  1  2  0  0  0  0
  2  6  2  0  0  0  0
  1  7  1  0  0  0  0
  5  8  1  0  0  0  0
  8  9  2  0  0  0  0
  4 10  2  0  0  0  0
 10 11  1  0  0  0  0
 11 12  2  0  0  0  0
 12 13  1  0  0  0  0
 13 14  2  0  0  0  0
 14 15  1  0  0  0  0
 15 11  1  0  0  0  0
 12 16  1  0  0  0  0
 13 17  1  0  0  0  0
 17 18  1  0  0  0  0
 18 19  1  0  0  0  0
 19 20  2  0  0  0  0
 19 21  1  0  0  0  0
 14 22  1  0  0  0  0
 22 23  1  0  0  0  0
 23 24  2  0  0  0  0
 24 25  1  0  0  0  0
 25 26  2  0  0  0  0
 26 27  1  0  0  0  0
 27 23  1  0  0  0  0
 25 28  1  0  0  0  0
 29 30  1  0  0  0  0
 30 31  1  0  0  0  0
 31 32  2  0  0  0  0
 31 33  1  0  0  0  0
 29 24  1  0  0  0  0
 26 34  1  0  0  0  0
 34 35  2  0  0  0  0
 35 36  1  0  0  0  0
 36 37  2  0  0  0  0
 37 38  1  0  0  0  0
 38 39  1  0  0  0  0
 39 35  1  0  0  0  0
 36 40  1  0  0  0  0
 38 41  2  0  0  0  0
 42 43  2  0  0  0  0
 37 42  1  0  0  0  0
M  END
> <DATABASE_ID>
HMDB00054

> <DATABASE_NAME>
hmdb

> <SMILES>
CC1=C(C=C)\C(NC1=O)=C\C1=C(C)C(CCC(O)=O)=C(CC2=C(CCC(O)=O)C(C)=C(N2)\C=C2/NC(=O)C(C=C)=C2C)N1

> <INCHI_IDENTIFIER>
InChI=1S/C33H36N4O6/c1-7-20-19(6)32(42)37-27(20)14-25-18(5)23(10-12-31(40)41)29(35-25)15-28-22(9-11-30(38)39)17(4)24(34-28)13-26-16(3)21(8-2)33(43)36-26/h7-8,13-14,34-35H,1-2,9-12,15H2,3-6H3,(H,36,43)(H,37,42)(H,38,39)(H,40,41)/b26-13-,27-14-

> <INCHI_KEY>
BPYKTIZUTYGOLE-IFADSCNNSA-N

> <FORMULA>
C33H36N4O6

> <MOLECULAR_WEIGHT>
584.6621

> <EXACT_MASS>
584.263484904

> <JCHEM_ACCEPTOR_COUNT>
6

> <JCHEM_AVERAGE_POLARIZABILITY>
66.15827368165033

> <JCHEM_BIOAVAILABILITY>
0

> <JCHEM_DONOR_COUNT>
6

> <JCHEM_FORMAL_CHARGE>
0

> <JCHEM_GHOSE_FILTER>
0

> <JCHEM_IUPAC>
3-(2-{[3-(2-carboxyethyl)-5-{[(2Z)-4-ethenyl-3-methyl-5-oxo-2,5-dihydro-1H-pyrrol-2-ylidene]methyl}-4-methyl-1H-pyrrol-2-yl]methyl}-5-{[(2Z)-3-ethenyl-4-methyl-5-oxo-2,5-dihydro-1H-pyrrol-2-ylidene]methyl}-4-methyl-1H-pyrrol-3-yl)propanoic acid

> <ALOGPS_LOGP>
3.22

> <JCHEM_LOGP>
3.119106452999999

> <ALOGPS_LOGS>
-4.78

> <JCHEM_MDDR_LIKE_RULE>
1

> <JCHEM_NUMBER_OF_RINGS>
4

> <JCHEM_PHYSIOLOGICAL_CHARGE>
-2

> <JCHEM_PKA>
4.630728870728111

> <JCHEM_PKA_STRONGEST_ACIDIC>
4.027490824017337

> <JCHEM_PKA_STRONGEST_BASIC>
-2.754561928374644

> <JCHEM_POLAR_SURFACE_AREA>
164.37999999999997

> <JCHEM_REFRACTIVITY>
168.89600000000002

> <JCHEM_ROTATABLE_BOND_COUNT>
12

> <JCHEM_RULE_OF_FIVE>
0

> <ALOGPS_SOLUBILITY>
9.64e-03 g/l

> <JCHEM_TRADITIONAL_IUPAC>
bilirubin

> <JCHEM_VEBER_RULE>
0

> <HMDB_ID>
HMDB00054

> <GENERIC_NAME>
Bilirubin

> <SYNONYMS>
(4Z,15Z)-Bilirubin IXa; (Z,Z)-Bilirubin IXa; 1,10,19,22,23,24-Hexahydro-2,7,13,17-tetramethyl-1,19-dioxo-3,18-divinyl-Biline-8,12-dipropionate; 1,10,19,22,23,24-Hexahydro-2,7,13,17-tetramethyl-1,19-dioxo-3,18-divinyl-Biline-8,12-dipropionic acid; 2,17-Diethenyl-1,10,19,22,23,24-hexahydro-3,7,13,18-tetramethyl-1,19-dioxo-21H-Biline-8,12-dipropanoate; 2,17-Diethenyl-1,10,19,22,23,24-hexahydro-3,7,13,18-tetramethyl-1,19-dioxo-21H-Biline-8,12-dipropanoic acid; 3-(2-((3-(2-Carboxyethyl)-4-methyl-5-((3-methyl-5-oxo-4-vinyl-1,5-dihydro-2H-pyrrol-2-ylidene)methyl)-1H-pyrrol-2-yl)methyl)-4-methyl-5-((4-methyl-5-oxo-3-vinyl-1,5-dihydro-2H-pyrrol-2-ylidene)methyl)-1H-pyrrol-3-yl)propanoate; 3-(2-((3-(2-Carboxyethyl)-4-methyl-5-((3-methyl-5-oxo-4-vinyl-1,5-dihydro-2H-pyrrol-2-ylidene)methyl)-1H-pyrrol-2-yl)methyl)-4-methyl-5-((4-methyl-5-oxo-3-vinyl-1,5-dihydro-2H-pyrrol-2-ylidene)methyl)-1H-pyrrol-3-yl)propanoic acid; 3-(2-((3-(2-Carboxyethyl)-4-methyl-5-[(Z)-(3-methyl-5-oxo-4-vinyl-1,5-dihydro-2H-pyrrol-2-ylidene)methyl]-1H-pyrrol-2-yl)methyl)-4-methyl-5-[(Z)-(4-methyl-5-oxo-3-vinyl-1,5-dihydro-2H-pyrrol-2-ylidene; 3-[2-[[3-(2-Carboxyethyl)-5-[(3-ethenyl-4-methyl-5-oxo-pyrrol-2-ylidene)methyl]-4-methyl-1H-pyrrol-2-yl]methyl]-5-[(4-ethenyl-3-methyl-5-oxo-pyrrol-2-ylidene)methyl]-4-methyl-1H-pyrrol-3-yl]propanoate; 3-[2-[[3-(2-Carboxyethyl)-5-[(3-ethenyl-4-methyl-5-oxo-pyrrol-2-ylidene)methyl]-4-methyl-1H-pyrrol-2-yl]methyl]-5-[(4-ethenyl-3-methyl-5-oxo-pyrrol-2-ylidene)methyl]-4-methyl-1H-pyrrol-3-yl]propanoic acid; 3-[2-[[3-(2-Carboxyethyl)-5-[(Z)-(3-ethenyl-4-methyl-5-oxo-pyrrol-2-ylidene)methyl]-4-methyl-1H-pyrrol-2-yl]methyl]-5-[(Z)-(4-ethenyl-3-methyl-5-oxo-pyrrol-2-ylidene)methyl]-4-methyl-1H-pyrrol-3-yl]propanoate; 3-[2-[[3-(2-Carboxyethyl)-5-[(Z)-(3-ethenyl-4-methyl-5-oxo-pyrrol-2-ylidene)methyl]-4-methyl-1H-pyrrol-2-yl]methyl]-5-[(Z)-(4-ethenyl-3-methyl-5-oxo-pyrrol-2-ylidene)methyl]-4-methyl-1H-pyrrol-3-yl]propanoic acid; Bilirubin; Bilirubin IX-alpha; Cholerythrin; Hematoidin

$$$$
