
  Mrv0541 02231215412D          

  9  8  0  0  1  0            999 V2000
   -0.1914    0.7145    0.0000 C   0  0  0  0  0  0  0  0  0  0  0  0
    0.5230    1.1270    0.0000 C   0  0  0  0  0  0  0  0  0  0  0  0
    1.2375    0.7145    0.0000 C   0  0  1  0  0  0  0  0  0  0  0  0
    1.2375   -0.1105    0.0000 C   0  0  0  0  0  0  0  0  0  0  0  0
    1.9520    1.1270    0.0000 C   0  0  2  0  0  0  0  0  0  0  0  0
    1.9520    1.9520    0.0000 N   0  0  0  0  0  0  0  0  0  0  0  0
    2.6664    0.7145    0.0000 C   0  0  0  0  0  0  0  0  0  0  0  0
    3.3809    1.1270    0.0000 O   0  0  0  0  0  0  0  0  0  0  0  0
    2.6664   -0.1105    0.0000 O   0  0  0  0  0  0  0  0  0  0  0  0
  1  2  1  0  0  0  0
  2  3  1  0  0  0  0
  3  4  1  6  0  0  0
  3  5  1  0  0  0  0
  5  6  1  6  0  0  0
  5  7  1  0  0  0  0
  7  8  1  0  0  0  0
  7  9  2  0  0  0  0
M  END
> <DATABASE_ID>
HMDB00557

> <DATABASE_NAME>
hmdb

> <SMILES>
CC[C@@H](C)[C@H](N)C(O)=O

> <INCHI_IDENTIFIER>
InChI=1S/C6H13NO2/c1-3-4(2)5(7)6(8)9/h4-5H,3,7H2,1-2H3,(H,8,9)/t4-,5+/m1/s1

> <INCHI_KEY>
AGPKZVBTJJNPAG-UHNVWZDZSA-N

> <FORMULA>
C6H13NO2

> <MOLECULAR_WEIGHT>
131.1729

> <EXACT_MASS>
131.094628665

> <JCHEM_ACCEPTOR_COUNT>
3

> <JCHEM_AVERAGE_POLARIZABILITY>
14.231886509699851

> <JCHEM_BIOAVAILABILITY>
1

> <JCHEM_DONOR_COUNT>
2

> <JCHEM_FORMAL_CHARGE>
0

> <JCHEM_GHOSE_FILTER>
0

> <JCHEM_IUPAC>
(2S,3R)-2-amino-3-methylpentanoic acid

> <ALOGPS_LOGP>
-1.73

> <JCHEM_LOGP>
-1.5084066056000942

> <ALOGPS_LOGS>
-0.06

> <JCHEM_MDDR_LIKE_RULE>
0

> <JCHEM_NUMBER_OF_RINGS>
0

> <JCHEM_PHYSIOLOGICAL_CHARGE>
0

> <JCHEM_PKA_STRONGEST_ACIDIC>
2.7913082723326537

> <JCHEM_PKA_STRONGEST_BASIC>
9.591345628135606

> <JCHEM_POLAR_SURFACE_AREA>
63.32

> <JCHEM_REFRACTIVITY>
34.093900000000005

> <JCHEM_ROTATABLE_BOND_COUNT>
3

> <JCHEM_RULE_OF_FIVE>
1

> <ALOGPS_SOLUBILITY>
1.14e+02 g/l

> <JCHEM_TRADITIONAL_IUPAC>
allo-isoleucine

> <JCHEM_VEBER_RULE>
0

> <HMDB_ID>
HMDB00557

> <GENERIC_NAME>
L-Alloisoleucine

> <SYNONYMS>
(2S,3R)-2-amino-3-methylpentanoate; (2S,3R)-2-amino-3-methylpentanoic acid; (3R)-LS-Isoleucine; 2-Amino-3-methyl-[S-(R*,S*)]-Pentanoate; 2-Amino-3-methyl-[S-(R*,S*)]-Pentanoic acid; Allo-Isoleucine; Allo-L-Isoleucine; L(+)-Alloisoleucine; L-Allo-Isoleucine; L-Alloisoleucine; Threo-3-methyl-L-Norvaline; Threo-L-Isoleucine; [S-(R*,S*)]-2-Amino-3-methylpentanoate; [S-(R*,S*)]-2-Amino-3-methylpentanoic acid

$$$$
