Untitled Document-8
  Mrv0541 02231218432D          

 16 15  0  0  0  0            999 V2000
   -1.4289    0.2062    0.0000 N   0  3  0  0  0  0  0  0  0  0  0  0
   -0.7145    0.6188    0.0000 C   0  0  0  0  0  0  0  0  0  0  0  0
    0.0000    0.2062    0.0000 C   0  0  0  0  0  0  0  0  0  0  0  0
    0.7145    0.6188    0.0000 C   0  0  0  0  0  0  0  0  0  0  0  0
    0.7145    1.4438    0.0000 C   0  0  0  0  0  0  0  0  0  0  0  0
    0.0000    1.8563    0.0000 O   0  5  0  0  0  0  0  0  0  0  0  0
    0.0000   -0.6188    0.0000 O   0  0  0  0  0  0  0  0  0  0  0  0
    0.7145   -1.0313    0.0000 C   0  0  0  0  0  0  0  0  0  0  0  0
    1.4289   -0.6188    0.0000 C   0  0  0  0  0  0  0  0  0  0  0  0
    1.4289    0.2062    0.0000 C   0  0  0  0  0  0  0  0  0  0  0  0
    2.1434   -1.0313    0.0000 C   0  0  0  0  0  0  0  0  0  0  0  0
   -1.8414    0.9207    0.0000 C   0  0  0  0  0  0  0  0  0  0  0  0
   -2.1434   -0.2062    0.0000 C   0  0  0  0  0  0  0  0  0  0  0  0
   -1.0164   -0.5082    0.0000 C   0  0  0  0  0  0  0  0  0  0  0  0
    0.7145   -1.8563    0.0000 O   0  0  0  0  0  0  0  0  0  0  0  0
    1.4289    1.8563    0.0000 O   0  0  0  0  0  0  0  0  0  0  0  0
  1  2  1  0  0  0  0
  2  3  1  0  0  0  0
  3  4  1  0  0  0  0
  4  5  1  0  0  0  0
  5  6  1  0  0  0  0
  3  7  1  0  0  0  0
  8  9  1  0  0  0  0
  9 10  1  0  0  0  0
  9 11  1  0  0  0  0
  1 12  1  0  0  0  0
  1 13  1  0  0  0  0
  1 14  1  0  0  0  0
  8 15  2  0  0  0  0
  5 16  2  0  0  0  0
  7  8  1  0  0  0  0
M  CHG  2   1   1   6  -1
M  END
> <DATABASE_ID>
HMDB00736

> <DATABASE_NAME>
hmdb

> <SMILES>
CC(C)C(=O)OC(CC([O-])=O)C[N+](C)(C)C

> <INCHI_IDENTIFIER>
InChI=1S/C11H21NO4/c1-8(2)11(15)16-9(6-10(13)14)7-12(3,4)5/h8-9H,6-7H2,1-5H3

> <INCHI_KEY>
LRCNOZRCYBNMEP-UHFFFAOYSA-N

> <FORMULA>
C11H21NO4

> <MOLECULAR_WEIGHT>
231.2887

> <EXACT_MASS>
231.147058165

> <JCHEM_ACCEPTOR_COUNT>
3

> <JCHEM_AVERAGE_POLARIZABILITY>
24.661605086553813

> <JCHEM_BIOAVAILABILITY>
1

> <JCHEM_DONOR_COUNT>
0

> <JCHEM_FORMAL_CHARGE>
0

> <JCHEM_GHOSE_FILTER>
0

> <JCHEM_IUPAC>
3-[(2-methylpropanoyl)oxy]-4-(trimethylazaniumyl)butanoate

> <ALOGPS_LOGP>
-2.13

> <JCHEM_LOGP>
-3.202858512471745

> <ALOGPS_LOGS>
-3.69

> <JCHEM_MDDR_LIKE_RULE>
0

> <JCHEM_NUMBER_OF_RINGS>
0

> <JCHEM_PHYSIOLOGICAL_CHARGE>
0

> <JCHEM_PKA_STRONGEST_ACIDIC>
4.268923893967359

> <JCHEM_PKA_STRONGEST_BASIC>
-7.089988723429431

> <JCHEM_POLAR_SURFACE_AREA>
66.43

> <JCHEM_REFRACTIVITY>
81.83819999999997

> <JCHEM_ROTATABLE_BOND_COUNT>
7

> <JCHEM_RULE_OF_FIVE>
1

> <ALOGPS_SOLUBILITY>
5.79e-02 g/l

> <JCHEM_TRADITIONAL_IUPAC>
isobutyryl-carnitine

> <JCHEM_VEBER_RULE>
0

> <HMDB_ID>
HMDB00736

> <GENERIC_NAME>
Isobutyryl-L-carnitine

> <SYNONYMS>
Isobutyryl-L-(-)-carnitine; Isobutyryl-L-carnitine; L-Isobutyric acid ester with (3-carboxy-2-hydroxypropyl)trimethylammonium hydroxide inner salt

$$$$
