
  Mrv0541 02231218232D          

 13 14  0  0  0  0            999 V2000
   15.1868   -6.8336    0.0000 C   0  0  0  0  0  0  0  0  0  0  0  0
   15.1868   -7.6586    0.0000 C   0  0  0  0  0  0  0  0  0  0  0  0
   14.4723   -6.4211    0.0000 C   0  0  0  0  0  0  0  0  0  0  0  0
   14.4723   -8.0711    0.0000 C   0  0  0  0  0  0  0  0  0  0  0  0
   13.7579   -6.8336    0.0000 C   0  0  0  0  0  0  0  0  0  0  0  0
   13.7579   -7.6586    0.0000 C   0  0  0  0  0  0  0  0  0  0  0  0
   12.9732   -6.5787    0.0000 C   0  0  0  0  0  0  0  0  0  0  0  0
   12.4883   -7.2461    0.0000 C   0  0  0  0  0  0  0  0  0  0  0  0
   12.9732   -7.9136    0.0000 N   0  0  0  0  0  0  0  0  0  0  0  0
   12.7183   -5.7941    0.0000 C   0  0  0  0  0  0  0  0  0  0  0  0
   13.2704   -5.1809    0.0000 C   0  0  0  0  0  0  0  0  0  0  0  0
   13.0154   -4.3963    0.0000 O   0  0  0  0  0  0  0  0  0  0  0  0
   14.0773   -5.3525    0.0000 O   0  0  0  0  0  0  0  0  0  0  0  0
  2  1  1  0  0  0  0
  3  1  2  0  0  0  0
  4  2  2  0  0  0  0
  5  3  1  0  0  0  0
  6  4  1  0  0  0  0
  6  5  2  0  0  0  0
  7  5  1  0  0  0  0
  8  7  2  0  0  0  0
  9  6  1  0  0  0  0
  9  8  1  0  0  0  0
 10  7  1  0  0  0  0
 11 10  1  0  0  0  0
 12 11  1  0  0  0  0
 13 11  2  0  0  0  0
M  END
> <DATABASE_ID>
HMDB00197

> <DATABASE_NAME>
hmdb

> <SMILES>
OC(=O)CC1=CNC2=C1C=CC=C2

> <INCHI_IDENTIFIER>
InChI=1S/C10H9NO2/c12-10(13)5-7-6-11-9-4-2-1-3-8(7)9/h1-4,6,11H,5H2,(H,12,13)

> <INCHI_KEY>
SEOVTRFCIGRIMH-UHFFFAOYSA-N

> <FORMULA>
C10H9NO2

> <MOLECULAR_WEIGHT>
175.184

> <EXACT_MASS>
175.063328537

> <JCHEM_ACCEPTOR_COUNT>
2

> <JCHEM_AVERAGE_POLARIZABILITY>
17.735695939781014

> <JCHEM_BIOAVAILABILITY>
1

> <JCHEM_DONOR_COUNT>
2

> <JCHEM_FORMAL_CHARGE>
0

> <JCHEM_GHOSE_FILTER>
1

> <JCHEM_IUPAC>
2-(1H-indol-3-yl)acetic acid

> <ALOGPS_LOGP>
1.87

> <JCHEM_LOGP>
1.709756098333333

> <ALOGPS_LOGS>
-2.10

> <JCHEM_MDDR_LIKE_RULE>
0

> <JCHEM_NUMBER_OF_RINGS>
2

> <JCHEM_PHYSIOLOGICAL_CHARGE>
-1

> <JCHEM_PKA>
16.189363501426207

> <JCHEM_PKA_STRONGEST_ACIDIC>
4.661850493370194

> <JCHEM_POLAR_SURFACE_AREA>
53.089999999999996

> <JCHEM_REFRACTIVITY>
48.4521

> <JCHEM_ROTATABLE_BOND_COUNT>
2

> <JCHEM_RULE_OF_FIVE>
1

> <ALOGPS_SOLUBILITY>
1.38e+00 g/l

> <JCHEM_TRADITIONAL_IUPAC>
Î²-indole-3-acetic acid

> <JCHEM_VEBER_RULE>
0

> <HMDB_ID>
HMDB00197

> <GENERIC_NAME>
Indoleacetic acid

> <SYNONYMS>
(1H-Indol-3-yl)-acetate; (1H-Indol-3-yl)-acetic acid; 1H-Indol-3-ylacetate; 1H-Indol-3-ylacetic acid; 1H-Indole-3-acetate; 1H-Indole-3-acetic acid; 2-(1H-Indol-3-yl)acetate; 2-(1H-Indol-3-yl)acetic acid; 2-(3-Indolyl)acetate; 2-(3-Indolyl)acetic acid; 3-(Carboxymethyl)indole; 3-IAA; 3-Indole-Acetic acid; 3-Indoleacetate; 3-Indoleacetic acid; 3-Indolylacetate; 3-Indolylacetic acid; alpha-Indol-3-yl-acetic acid; b-Indoleacetate; b-Indoleacetic acid; b-Indolylacetate; b-Indolylacetic acid; beta-Indole-3-acetic acid; beta-Indoleacetate; beta-Indoleacetic acid; beta-Indolylacetate; beta-Indolylacetic acid; Heteroauxin; Indol-3-ylacetate; Indol-3-ylacetic acid; Indole-3-acetate; Indole-3-acetic acid; Indoleacetate; Indoleacetic acid; Indolyl-3-acetate; Indolyl-3-acetic acid; Indolylacetate; Indolylacetic acid; Kyselina 3-indolyloctova; Rhizopin; Rhizopon A; Skatole carboxylate; Skatole carboxylic acid

$$$$
