
  Mrv0541 02231219222D          

 15 16  0  0  0  0            999 V2000
   17.0475   -3.2170    0.0000 O   0  0  0  0  0  0  0  0  0  0  0  0
   15.6185   -5.6920    0.0000 O   0  0  0  0  0  0  0  0  0  0  0  0
   19.8490   -4.8671    0.0000 O   0  0  0  0  0  0  0  0  0  0  0  0
   17.0475   -5.6920    0.0000 N   0  0  0  0  0  0  0  0  0  0  0  0
   18.5426   -4.2031    0.0000 N   0  0  0  0  0  0  0  0  0  0  0  0
   16.3329   -4.4545    0.0000 N   0  0  0  0  0  0  0  0  0  0  0  0
   18.5426   -5.5309    0.0000 N   0  0  0  0  0  0  0  0  0  0  0  0
   17.7620   -4.4545    0.0000 C   0  0  0  0  0  0  0  0  0  0  0  0
   17.7620   -5.2794    0.0000 C   0  0  0  0  0  0  0  0  0  0  0  0
   17.0475   -4.0420    0.0000 C   0  0  0  0  0  0  0  0  0  0  0  0
   16.3329   -5.2794    0.0000 C   0  0  0  0  0  0  0  0  0  0  0  0
   19.0240   -4.8671    0.0000 C   0  0  0  0  0  0  0  0  0  0  0  0
   17.0475   -6.5170    0.0000 C   0  0  0  0  0  0  0  0  0  0  0  0
   18.7989   -3.4189    0.0000 C   0  0  0  0  0  0  0  0  0  0  0  0
   15.6185   -4.0420    0.0000 C   0  0  0  0  0  0  0  0  0  0  0  0
  1 10  2  0  0  0  0
  2 11  2  0  0  0  0
  3 12  2  0  0  0  0
  4  9  1  0  0  0  0
  4 11  1  0  0  0  0
  4 13  1  0  0  0  0
  5  8  1  0  0  0  0
  5 12  1  0  0  0  0
  5 14  1  0  0  0  0
  6 10  1  0  0  0  0
  6 11  1  0  0  0  0
  6 15  1  0  0  0  0
  7  9  1  0  0  0  0
  7 12  1  0  0  0  0
  8  9  2  0  0  0  0
  8 10  1  0  0  0  0
M  END
> <DATABASE_ID>
HMDB02123

> <DATABASE_NAME>
hmdb

> <SMILES>
CN1C(=O)NC2=C1C(=O)N(C)C(=O)N2C

> <INCHI_IDENTIFIER>
InChI=1S/C8H10N4O3/c1-10-4-5(9-7(10)14)11(2)8(15)12(3)6(4)13/h1-3H3,(H,9,14)

> <INCHI_KEY>
BYXCFUMGEBZDDI-UHFFFAOYSA-N

> <FORMULA>
C8H10N4O3

> <MOLECULAR_WEIGHT>
210.19

> <EXACT_MASS>
210.075290206

> <JCHEM_ACCEPTOR_COUNT>
3

> <JCHEM_AVERAGE_POLARIZABILITY>
19.815503960334595

> <JCHEM_BIOAVAILABILITY>
1

> <JCHEM_DONOR_COUNT>
1

> <JCHEM_FORMAL_CHARGE>
0

> <JCHEM_GHOSE_FILTER>
0

> <JCHEM_IUPAC>
1,3,7-trimethyl-2,3,6,7,8,9-hexahydro-1H-purine-2,6,8-trione

> <ALOGPS_LOGP>
-0.49

> <JCHEM_LOGP>
-0.8731647386666664

> <ALOGPS_LOGS>
-0.87

> <JCHEM_MDDR_LIKE_RULE>
0

> <JCHEM_NUMBER_OF_RINGS>
2

> <JCHEM_PHYSIOLOGICAL_CHARGE>
0

> <JCHEM_PKA_STRONGEST_ACIDIC>
8.463980111537293

> <JCHEM_PKA_STRONGEST_BASIC>
-5.670348659606715

> <JCHEM_POLAR_SURFACE_AREA>
72.96000000000001

> <JCHEM_REFRACTIVITY>
60.3187

> <JCHEM_ROTATABLE_BOND_COUNT>
0

> <JCHEM_RULE_OF_FIVE>
1

> <ALOGPS_SOLUBILITY>
2.83e+01 g/l

> <JCHEM_TRADITIONAL_IUPAC>
1,3,7-trimethyluric acid

> <JCHEM_VEBER_RULE>
0

> <HMDB_ID>
HMDB02123

> <GENERIC_NAME>
1,3,7-Trimethyluric acid

> <SYNONYMS>
1,3, 7-Trimethyluric acid; 1,3,7-Trimethyl-7,9-dihydro-1H-purine-2,6,8(3H)-trione; 1,3,7-Trimethylurate; 2,6,8-Trihydroxy-1,3,7-trimethylpurine; 7,9-Dihydro-1,3,7-trimethyl-1H-purine-2,6,8(3H)-trione; 8-Hydroxy-1,3,7-trimethyl-3,7-dihydro-1H-purine-2,6-dione; 8-Oxy-caffeine; Trimethyl uric acid

$$$$
