
  Mrv0541 09241312462D          

  6  5  0  0  0  0            999 V2000
    1.8187    0.2250    0.0000 C   0  0  0  0  0  0  0  0  0  0  0  0
    1.1042   -0.1875    0.0000 C   0  0  1  0  0  0  0  0  0  0  0  0
    2.5331   -0.1875    0.0000 O   0  0  0  0  0  0  0  0  0  0  0  0
    1.8187    1.0500    0.0000 O   0  0  0  0  0  0  0  0  0  0  0  0
    1.1042   -1.0125    0.0000 N   0  0  0  0  0  0  0  0  0  0  0  0
    0.3897    0.2250    0.0000 C   0  0  0  0  0  0  0  0  0  0  0  0
  2  1  1  0  0  0  0
  4  1  2  0  0  0  0
  3  1  1  0  0  0  0
  2  6  1  0  0  0  0
  2  5  1  1  0  0  0
M  END
> <DATABASE_ID>
HMDB00161

> <DATABASE_NAME>
hmdb

> <SMILES>
C[C@H](N)C(O)=O

> <INCHI_IDENTIFIER>
InChI=1S/C3H7NO2/c1-2(4)3(5)6/h2H,4H2,1H3,(H,5,6)/t2-/m0/s1

> <INCHI_KEY>
QNAYBMKLOCPYGJ-REOHCLBHSA-N

> <FORMULA>
C3H7NO2

> <MOLECULAR_WEIGHT>
89.0932

> <EXACT_MASS>
89.047678473

> <JCHEM_ACCEPTOR_COUNT>
3

> <JCHEM_AVERAGE_POLARIZABILITY>
8.487233835110636

> <JCHEM_BIOAVAILABILITY>
1

> <JCHEM_DONOR_COUNT>
2

> <JCHEM_FORMAL_CHARGE>
0

> <JCHEM_GHOSE_FILTER>
0

> <JCHEM_IUPAC>
(2S)-2-aminopropanoic acid

> <ALOGPS_LOGP>
-3.05

> <JCHEM_LOGP>
-2.840787909732942

> <ALOGPS_LOGS>
0.70

> <JCHEM_MDDR_LIKE_RULE>
0

> <JCHEM_NUMBER_OF_RINGS>
0

> <JCHEM_PHYSIOLOGICAL_CHARGE>
0

> <JCHEM_PKA_STRONGEST_ACIDIC>
2.474897471379417

> <JCHEM_PKA_STRONGEST_BASIC>
9.476905287351833

> <JCHEM_POLAR_SURFACE_AREA>
63.31999999999999

> <JCHEM_REFRACTIVITY>
20.4973

> <JCHEM_ROTATABLE_BOND_COUNT>
1

> <JCHEM_RULE_OF_FIVE>
1

> <ALOGPS_SOLUBILITY>
4.47e+02 g/l

> <JCHEM_TRADITIONAL_IUPAC>
L-alanine

> <JCHEM_VEBER_RULE>
0

> <HMDB_ID>
HMDB00161

> <GENERIC_NAME>
L-Alanine

> <SYNONYMS>
(2S)-2-Aminopropanoate; (2S)-2-Aminopropanoic acid; (S)-(+)-Alanine; (S)-2-amino-Propanoate; (S)-2-amino-Propanoic acid; (S)-2-Aminopropanoate; (S)-2-Aminopropanoic acid; (S)-Alanine; 2-Aminopropanoate; 2-Aminopropanoic acid; 2-Aminopropionate; 2-Aminopropionic acid; 2-Ammoniopropanoate; 2-Ammoniopropanoic acid; a-Alanine; a-Aminopropionate; a-Aminopropionic acid; Ala; Alanine; alpha-Alanine; alpha-Aminopropanoate; alpha-Aminopropanoic acid; alpha-Aminopropionate; alpha-Aminopropionic acid; L-(+)-Alanine; L-2-Aminopropanoate; L-2-Aminopropanoic acid; L-2-Aminopropionate; L-2-Aminopropionic acid; L-a-Alanine; L-a-Aminopropionate; L-a-Aminopropionic acid; L-alpha-Alanine; L-alpha-Aminopropionate; L-alpha-Aminopropionic acid

$$$$
