
  Mrv0541 02231218442D          

 22 21  0  0  0  0            999 V2000
   -0.3572   -0.2062    0.0000 C   0  0  0  0  0  0  0  0  0  0  0  0
    0.3572    0.2063    0.0000 C   0  0  0  0  0  0  0  0  0  0  0  0
    1.0717   -0.2063    0.0000 C   0  0  0  0  0  0  0  0  0  0  0  0
    1.7862    0.2062    0.0000 C   0  0  0  0  0  0  0  0  0  0  0  0
    2.5006   -0.2063    0.0000 C   0  0  0  0  0  0  0  0  0  0  0  0
    3.2151    0.2062    0.0000 C   0  0  0  0  0  0  0  0  0  0  0  0
    3.9296   -0.2063    0.0000 C   0  0  0  0  0  0  0  0  0  0  0  0
    4.6441    0.2062    0.0000 C   0  0  0  0  0  0  0  0  0  0  0  0
    5.3585   -0.2063    0.0000 C   0  0  0  0  0  0  0  0  0  0  0  0
    6.0730    0.2062    0.0000 C   0  0  0  0  0  0  0  0  0  0  0  0
    6.0730    1.0312    0.0000 O   0  0  0  0  0  0  0  0  0  0  0  0
    6.7875   -0.2063    0.0000 O   0  0  0  0  0  0  0  0  0  0  0  0
   -1.0717    0.2063    0.0000 C   0  0  0  0  0  0  0  0  0  0  0  0
   -1.7862   -0.2062    0.0000 C   0  0  0  0  0  0  0  0  0  0  0  0
   -2.5006    0.2063    0.0000 C   0  0  0  0  0  0  0  0  0  0  0  0
   -3.2151   -0.2062    0.0000 C   0  0  0  0  0  0  0  0  0  0  0  0
   -3.9296    0.2063    0.0000 C   0  0  0  0  0  0  0  0  0  0  0  0
   -4.6441   -0.2062    0.0000 C   0  0  0  0  0  0  0  0  0  0  0  0
   -5.3585    0.2063    0.0000 C   0  0  0  0  0  0  0  0  0  0  0  0
   -6.0730   -0.2062    0.0000 C   0  0  0  0  0  0  0  0  0  0  0  0
   -6.0730   -1.0312    0.0000 O   0  0  0  0  0  0  0  0  0  0  0  0
   -6.7875    0.2063    0.0000 O   0  0  0  0  0  0  0  0  0  0  0  0
  1  2  1  0  0  0  0
  2  3  1  0  0  0  0
  3  4  1  0  0  0  0
  4  5  1  0  0  0  0
  5  6  1  0  0  0  0
  6  7  1  0  0  0  0
  7  8  1  0  0  0  0
  8  9  1  0  0  0  0
  9 10  1  0  0  0  0
 10 11  2  0  0  0  0
 10 12  1  0  0  0  0
  1 13  1  0  0  0  0
 13 14  1  0  0  0  0
 14 15  1  0  0  0  0
 15 16  1  0  0  0  0
 16 17  1  0  0  0  0
 17 18  1  0  0  0  0
 18 19  1  0  0  0  0
 19 20  1  0  0  0  0
 20 21  2  0  0  0  0
 20 22  1  0  0  0  0
M  END
> <DATABASE_ID>
HMDB00782

> <DATABASE_NAME>
hmdb

> <SMILES>
OC(=O)CCCCCCCCCCCCCCCCC(O)=O

> <INCHI_IDENTIFIER>
InChI=1S/C18H34O4/c19-17(20)15-13-11-9-7-5-3-1-2-4-6-8-10-12-14-16-18(21)22/h1-16H2,(H,19,20)(H,21,22)

> <INCHI_KEY>
BNJOQKFENDDGSC-UHFFFAOYSA-N

> <FORMULA>
C18H34O4

> <MOLECULAR_WEIGHT>
314.4602

> <EXACT_MASS>
314.245709576

> <JCHEM_ACCEPTOR_COUNT>
4

> <JCHEM_AVERAGE_POLARIZABILITY>
39.65404833325946

> <JCHEM_BIOAVAILABILITY>
0

> <JCHEM_DONOR_COUNT>
2

> <JCHEM_FORMAL_CHARGE>
0

> <JCHEM_GHOSE_FILTER>
0

> <JCHEM_IUPAC>
octadecanedioic acid

> <ALOGPS_LOGP>
5.86

> <JCHEM_LOGP>
5.825478342666667

> <ALOGPS_LOGS>
-5.50

> <JCHEM_MDDR_LIKE_RULE>
0

> <JCHEM_NUMBER_OF_RINGS>
0

> <JCHEM_PHYSIOLOGICAL_CHARGE>
-2

> <JCHEM_PKA>
5.253049650892543

> <JCHEM_PKA_STRONGEST_ACIDIC>
4.650989659564581

> <JCHEM_POLAR_SURFACE_AREA>
74.6

> <JCHEM_REFRACTIVITY>
87.951

> <JCHEM_ROTATABLE_BOND_COUNT>
17

> <JCHEM_RULE_OF_FIVE>
0

> <ALOGPS_SOLUBILITY>
9.88e-04 g/l

> <JCHEM_TRADITIONAL_IUPAC>
octadecanedioic acid

> <JCHEM_VEBER_RULE>
0

> <HMDB_ID>
HMDB00782

> <GENERIC_NAME>
Octadecanedioic acid

> <SYNONYMS>
1,16-Hexadecanedicarboxylate; 1,16-Hexadecanedicarboxylic acid; 1,18-Octadecanedioate; 1,18-Octadecanedioic acid; Octadecanedioate; Octadecanedioic acid

$$$$
