
  Mrv0541 02231218212D          

 12 12  0  0  0  0            999 V2000
   -0.2379    0.1379    0.0000 C   0  0  0  0  0  0  0  0  0  0  0  0
    0.4759   -0.2759    0.0000 C   0  0  0  0  0  0  0  0  0  0  0  0
   -0.9550   -0.2759    0.0000 C   0  0  0  0  0  0  0  0  0  0  0  0
   -0.2379    0.9619    0.0000 C   0  0  0  0  0  0  0  0  0  0  0  0
    0.4759   -1.0998    0.0000 C   0  0  0  0  0  0  0  0  0  0  0  0
    1.1895    0.1379    0.0000 O   0  0  0  0  0  0  0  0  0  0  0  0
   -0.9550   -1.0998    0.0000 C   0  0  0  0  0  0  0  0  0  0  0  0
    0.4793    1.3757    0.0000 C   0  0  0  0  0  0  0  0  0  0  0  0
   -0.2379   -1.5136    0.0000 C   0  0  0  0  0  0  0  0  0  0  0  0
   -1.6688   -1.5136    0.0000 O   0  0  0  0  0  0  0  0  0  0  0  0
    1.1929    0.9619    0.0000 O   0  0  0  0  0  0  0  0  0  0  0  0
    0.4793    2.1996    0.0000 O   0  0  0  0  0  0  0  0  0  0  0  0
  1  2  2  0  0  0  0
  1  3  1  0  0  0  0
  1  4  1  0  0  0  0
  2  5  1  0  0  0  0
  2  6  1  0  0  0  0
  3  7  2  0  0  0  0
  4  8  1  0  0  0  0
  5  9  2  0  0  0  0
  7 10  1  0  0  0  0
  8 11  1  0  0  0  0
  8 12  2  0  0  0  0
  7  9  1  0  0  0  0
M  END
> <DATABASE_ID>
HMDB00130

> <DATABASE_NAME>
hmdb

> <SMILES>
OC(=O)CC1=C(O)C=CC(O)=C1

> <INCHI_IDENTIFIER>
InChI=1S/C8H8O4/c9-6-1-2-7(10)5(3-6)4-8(11)12/h1-3,9-10H,4H2,(H,11,12)

> <INCHI_KEY>
IGMNYECMUMZDDF-UHFFFAOYSA-N

> <FORMULA>
C8H8O4

> <MOLECULAR_WEIGHT>
168.1467

> <EXACT_MASS>
168.042258744

> <JCHEM_ACCEPTOR_COUNT>
4

> <JCHEM_AVERAGE_POLARIZABILITY>
15.568374170369887

> <JCHEM_BIOAVAILABILITY>
1

> <JCHEM_DONOR_COUNT>
3

> <JCHEM_FORMAL_CHARGE>
0

> <JCHEM_GHOSE_FILTER>
1

> <JCHEM_IUPAC>
2-(2,5-dihydroxyphenyl)acetic acid

> <ALOGPS_LOGP>
0.81

> <JCHEM_LOGP>
1.0038634619999998

> <ALOGPS_LOGS>
-1.32

> <JCHEM_MDDR_LIKE_RULE>
0

> <JCHEM_NUMBER_OF_RINGS>
1

> <JCHEM_PHYSIOLOGICAL_CHARGE>
-1

> <JCHEM_PKA>
9.566007893833087

> <JCHEM_PKA_STRONGEST_ACIDIC>
3.5738042143024793

> <JCHEM_PKA_STRONGEST_BASIC>
-5.895788377591718

> <JCHEM_POLAR_SURFACE_AREA>
77.75999999999999

> <JCHEM_REFRACTIVITY>
41.3274

> <JCHEM_ROTATABLE_BOND_COUNT>
2

> <JCHEM_RULE_OF_FIVE>
1

> <ALOGPS_SOLUBILITY>
8.10e+00 g/l

> <JCHEM_TRADITIONAL_IUPAC>
homogentisic acid

> <JCHEM_VEBER_RULE>
0

> <HMDB_ID>
HMDB00130

> <GENERIC_NAME>
Homogentisic acid

> <SYNONYMS>
(2,5-dihydroxyphenyl)-Acetate; (2,5-dihydroxyphenyl)-Acetic acid; 2,5-Dihydroxy-a-toluate; 2,5-Dihydroxy-a-toluic acid; 2,5-Dihydroxy-alpha-toluate; 2,5-Dihydroxy-alpha-toluic acid; 2,5-Dihydroxy-benzeneacetate; 2,5-Dihydroxy-benzeneacetic acid; 2,5-Dihydroxyphenylacetate; 2,5-Dihydroxyphenylacetic acid; Alcapton; Homogentisate; Homogentisate acid; Homogentisinate; Homogentisinic acid; Melanic acid

$$$$
