
  Mrv0541 02231219132D          

 10  9  0  0  0  0            999 V2000
   10.9933  -17.1959    0.0000 C   0  0  0  0  0  0  0  0  0  0  0  0
   11.4058  -16.4813    0.0000 C   0  0  0  0  0  0  0  0  0  0  0  0
   12.2308  -16.4813    0.0000 C   0  0  0  0  0  0  0  0  0  0  0  0
   12.6433  -15.7669    0.0000 C   0  0  0  0  0  0  0  0  0  0  0  0
   13.4683  -15.7669    0.0000 C   0  0  0  0  0  0  0  0  0  0  0  0
   13.8808  -15.0524    0.0000 C   0  0  0  0  0  0  0  0  0  0  0  0
   14.7058  -15.0524    0.0000 C   0  0  0  0  0  0  0  0  0  0  0  0
   15.1183  -14.3379    0.0000 C   0  0  0  0  0  0  0  0  0  0  0  0
   15.9433  -14.3379    0.0000 O   0  0  0  0  0  0  0  0  0  0  0  0
   14.7058  -13.6235    0.0000 O   0  0  0  0  0  0  0  0  0  0  0  0
  1  2  1  0  0  0  0
  2  3  1  0  0  0  0
  3  4  1  0  0  0  0
  4  5  1  0  0  0  0
  5  6  1  0  0  0  0
  6  7  2  0  0  0  0
  7  8  1  0  0  0  0
  8  9  1  0  0  0  0
  8 10  2  0  0  0  0
M  END
> <DATABASE_ID>
HMDB01568

> <DATABASE_NAME>
hmdb

> <SMILES>
CCCCC\C=C\C(O)=O

> <INCHI_IDENTIFIER>
InChI=1S/C8H14O2/c1-2-3-4-5-6-7-8(9)10/h6-7H,2-5H2,1H3,(H,9,10)/b7-6+

> <INCHI_KEY>
CWMPPVPFLSZGCY-VOTSOKGWSA-N

> <FORMULA>
C8H14O2

> <MOLECULAR_WEIGHT>
142.1956

> <EXACT_MASS>
142.099379692

> <JCHEM_ACCEPTOR_COUNT>
2

> <JCHEM_AVERAGE_POLARIZABILITY>
16.44537350299343

> <JCHEM_BIOAVAILABILITY>
1

> <JCHEM_DONOR_COUNT>
1

> <JCHEM_FORMAL_CHARGE>
0

> <JCHEM_GHOSE_FILTER>
0

> <JCHEM_IUPAC>
(2E)-oct-2-enoic acid

> <ALOGPS_LOGP>
3.01

> <JCHEM_LOGP>
2.6978569473333334

> <ALOGPS_LOGS>
-2.28

> <JCHEM_MDDR_LIKE_RULE>
0

> <JCHEM_NUMBER_OF_RINGS>
0

> <JCHEM_PHYSIOLOGICAL_CHARGE>
-1

> <JCHEM_PKA_STRONGEST_ACIDIC>
5.252182202336849

> <JCHEM_POLAR_SURFACE_AREA>
37.3

> <JCHEM_REFRACTIVITY>
41.3689

> <JCHEM_ROTATABLE_BOND_COUNT>
5

> <JCHEM_RULE_OF_FIVE>
1

> <ALOGPS_SOLUBILITY>
7.44e-01 g/l

> <JCHEM_TRADITIONAL_IUPAC>
trans-2-octenoic acid

> <JCHEM_VEBER_RULE>
1

> <HMDB_ID>
HMDB01568

> <GENERIC_NAME>
trans-2-Octenoic acid

> <SYNONYMS>
(E)-2-Octenoate; (E)-2-Octenoic acid; (E)-Oct-2-enoate; (E)-Oct-2-enoic acid; trans-2-Octenoate; trans-2-Octenoic acid

$$$$
