 
  Mrv0541 02231218442D          
 
 20 19  0  0  1  0            999 V2000
   15.5466   -9.5763    0.0000 C   0  0  1  0  0  0  0  0  0  0  0  0
   14.8281   -9.9888    0.0000 O   0  0  0  0  0  0  0  0  0  0  0  0
   16.2617   -9.9853    0.0000 C   0  0  0  0  0  0  0  0  0  0  0  0
   15.5432   -8.7478    0.0000 C   0  0  0  0  0  0  0  0  0  0  0  0
   14.1132   -9.5763    0.0000 C   0  0  0  0  0  0  0  0  0  0  0  0
   16.2650  -10.8138    0.0000 N   0  3  0  0  0  0  0  0  0  0  0  0
   16.2617   -8.3319    0.0000 C   0  0  0  0  0  0  0  0  0  0  0  0
   13.3982   -9.9888    0.0000 C   0  0  0  0  0  0  0  0  0  0  0  0
   14.1132   -8.7513    0.0000 O   0  0  0  0  0  0  0  0  0  0  0  0
   17.0214  -11.1850    0.0000 C   0  0  0  0  0  0  0  0  0  0  0  0
   15.5466  -11.2297    0.0000 C   0  0  0  0  0  0  0  0  0  0  0  0
   16.4782  -11.6938    0.0000 C   0  0  0  0  0  0  0  0  0  0  0  0
   16.2582   -7.5069    0.0000 O   0  0  0  0  0  0  0  0  0  0  0  0
   16.9766   -8.7478    0.0000 O   0  5  0  0  0  0  0  0  0  0  0  0
   12.6867   -9.5797    0.0000 C   0  0  0  0  0  0  0  0  0  0  0  0
   11.9751   -9.9922    0.0000 C   0  0  0  0  0  0  0  0  0  0  0  0
   11.2601   -9.5865    0.0000 C   0  0  0  0  0  0  0  0  0  0  0  0
   10.5451   -9.9956    0.0000 C   0  0  0  0  0  0  0  0  0  0  0  0
    9.8301   -9.5900    0.0000 C   0  0  0  0  0  0  0  0  0  0  0  0
    9.1151  -10.0025    0.0000 C   0  0  0  0  0  0  0  0  0  0  0  0
  1  2  1  6  0  0  0
  1  3  1  0  0  0  0
  1  4  1  0  0  0  0
  2  5  1  0  0  0  0
  3  6  1  0  0  0  0
  4  7  1  0  0  0  0
  5  8  1  0  0  0  0
  5  9  2  0  0  0  0
  6 10  1  0  0  0  0
  6 11  1  0  0  0  0
  6 12  1  0  0  0  0
  7 13  2  0  0  0  0
  7 14  1  0  0  0  0
  8 15  1  0  0  0  0
 15 16  1  0  0  0  0
 16 17  1  0  0  0  0
 17 18  1  0  0  0  0
 18 19  1  0  0  0  0
 19 20  1  0  0  0  0
M  CHG  2   6   1  14  -1
M  END
> <DATABASE_ID>
HMDB00791

> <DATABASE_NAME>
hmdb

> <SMILES>
CCCCCCCC(=O)O[C@H](CC([O-])=O)C[N+](C)(C)C

> <INCHI_IDENTIFIER>
InChI=1S/C15H29NO4/c1-5-6-7-8-9-10-15(19)20-13(11-14(17)18)12-16(2,3)4/h13H,5-12H2,1-4H3/t13-/m1/s1

> <INCHI_KEY>
CXTATJFJDMJMIY-CYBMUJFWSA-N

> <FORMULA>
C15H29NO4

> <MOLECULAR_WEIGHT>
287.3951

> <EXACT_MASS>
287.209658421

> <JCHEM_ACCEPTOR_COUNT>
3

> <JCHEM_AVERAGE_POLARIZABILITY>
33.21643498066734

> <JCHEM_BIOAVAILABILITY>
1

> <JCHEM_DONOR_COUNT>
0

> <JCHEM_FORMAL_CHARGE>
0

> <JCHEM_GHOSE_FILTER>
0

> <JCHEM_IUPAC>
(3R)-3-(octanoyloxy)-4-(trimethylazaniumyl)butanoate

> <ALOGPS_LOGP>
-1.22

> <JCHEM_LOGP>
-1.5230014658050801

> <ALOGPS_LOGS>
-5.60

> <JCHEM_MDDR_LIKE_RULE>
0

> <JCHEM_NUMBER_OF_RINGS>
0

> <JCHEM_PHYSIOLOGICAL_CHARGE>
0

> <JCHEM_PKA_STRONGEST_ACIDIC>
4.216763902737658

> <JCHEM_PKA_STRONGEST_BASIC>
-7.057186892022269

> <JCHEM_POLAR_SURFACE_AREA>
66.43

> <JCHEM_REFRACTIVITY>
100.2687

> <JCHEM_ROTATABLE_BOND_COUNT>
12

> <JCHEM_RULE_OF_FIVE>
1

> <ALOGPS_SOLUBILITY>
8.50e-04 g/l

> <JCHEM_TRADITIONAL_IUPAC>
L-octanoylcarnitine

> <JCHEM_VEBER_RULE>
0

> <HMDB_ID>
HMDB00791

> <GENERIC_NAME>
L-Octanoylcarnitine

> <SYNONYMS>
(-)-Octanoylcarnitine; L-Carnitine octanoyl ester; L-O-Octanoylcarnitine; L-Octanoylcarnitine; Octanoic acid ester with L-(3-carboxy-2-hydroxypropyl)trimethylammonium hydroxide inner salt; Octanoyl-L-carnitine; Octanoylcarnitine

$$$$
