
  Mrv0541 02231215362D          

 12 11  0  0  1  0            999 V2000
    1.0461    1.4289    0.0000 O   0  0  0  0  0  0  0  0  0  0  0  0
    1.7605    1.8414    0.0000 C   0  0  0  0  0  0  0  0  0  0  0  0
    2.4750    1.4289    0.0000 C   0  0  2  0  0  0  0  0  0  0  0  0
    2.4750    0.6039    0.0000 O   0  0  0  0  0  0  0  0  0  0  0  0
    3.1895    1.8414    0.0000 C   0  0  1  0  0  0  0  0  0  0  0  0
    3.1895    2.6664    0.0000 O   0  0  0  0  0  0  0  0  0  0  0  0
    3.9039    1.4289    0.0000 C   0  0  2  0  0  0  0  0  0  0  0  0
    3.9039    0.6039    0.0000 O   0  0  0  0  0  0  0  0  0  0  0  0
    4.6184    1.8414    0.0000 C   0  0  2  0  0  0  0  0  0  0  0  0
    4.6184    2.6664    0.0000 O   0  0  0  0  0  0  0  0  0  0  0  0
    5.3329    1.4289    0.0000 C   0  0  0  0  0  0  0  0  0  0  0  0
    6.0474    1.8414    0.0000 O   0  0  0  0  0  0  0  0  0  0  0  0
  1  2  1  0  0  0  0
  2  3  1  0  0  0  0
  3  4  1  1  0  0  0
  3  5  1  0  0  0  0
  5  6  1  1  0  0  0
  5  7  1  0  0  0  0
  7  8  1  1  0  0  0
  7  9  1  0  0  0  0
  9 10  1  6  0  0  0
  9 11  1  0  0  0  0
 11 12  1  0  0  0  0
M  END
> <DATABASE_ID>
HMDB00247

> <DATABASE_NAME>
hmdb

> <SMILES>
OC[C@H](O)[C@@H](O)[C@H](O)[C@H](O)CO

> <INCHI_IDENTIFIER>
InChI=1S/C6H14O6/c7-1-3(9)5(11)6(12)4(10)2-8/h3-12H,1-2H2/t3-,4+,5-,6-/m1/s1

> <INCHI_KEY>
FBPFZTCFMRRESA-JGWLITMVSA-N

> <FORMULA>
C6H14O6

> <MOLECULAR_WEIGHT>
182.1718

> <EXACT_MASS>
182.07903818

> <JCHEM_ACCEPTOR_COUNT>
6

> <JCHEM_AVERAGE_POLARIZABILITY>
17.124111360294883

> <JCHEM_BIOAVAILABILITY>
1

> <JCHEM_DONOR_COUNT>
6

> <JCHEM_FORMAL_CHARGE>
0

> <JCHEM_GHOSE_FILTER>
0

> <JCHEM_IUPAC>
(2R,3R,4R,5S)-hexane-1,2,3,4,5,6-hexol

> <ALOGPS_LOGP>
-2.68

> <JCHEM_LOGP>
-3.7300188486666666

> <ALOGPS_LOGS>
0.10

> <JCHEM_MDDR_LIKE_RULE>
0

> <JCHEM_NUMBER_OF_RINGS>
0

> <JCHEM_PHYSIOLOGICAL_CHARGE>
0

> <JCHEM_PKA>
13.37874915684328

> <JCHEM_PKA_STRONGEST_ACIDIC>
12.585200956788803

> <JCHEM_PKA_STRONGEST_BASIC>
-2.974211614825128

> <JCHEM_POLAR_SURFACE_AREA>
121.38000000000001

> <JCHEM_REFRACTIVITY>
38.4036

> <JCHEM_ROTATABLE_BOND_COUNT>
5

> <JCHEM_RULE_OF_FIVE>
0

> <ALOGPS_SOLUBILITY>
2.29e+02 g/l

> <JCHEM_TRADITIONAL_IUPAC>
D-sorbitol

> <JCHEM_VEBER_RULE>
0

> <HMDB_ID>
HMDB00247

> <GENERIC_NAME>
Sorbitol

> <SYNONYMS>
(-)-Sorbitol; D-Glucitol; D-Sorbitol; D-Sorbol; Diakarmon; Esasorb; Foodol D 70; Glucarine; Glucitol; Karion; Karion instant; Kyowa Powder 50M; L-Gulitol; Multitol; Neosorb; Neosorb 20/60DC; Neosorb 70/02; Neosorb 70/70; Neosorb P 20/60; Neosorb P 60; Neosorb P 60W; Nivitin; Resulax; Sionit; Sionit K; Sionite; Sionon; Siosan; Sorbex M; Sorbex R; Sorbex Rp; Sorbex S; Sorbex X; Sorbilande; Sorbilax; Sorbit; Sorbit D 70; Sorbit D-Powder; Sorbit DP; Sorbit DP 50; Sorbit Kyowa Powder 50M; Sorbit L 70; Sorbit S; Sorbit T 70; Sorbit W 70; Sorbit W-Powder; Sorbit W-Powder 50; Sorbit WP; Sorbite; Sorbitol F; Sorbitol FK; Sorbitol FP; Sorbitol S; Sorbitol syrup C; Sorbitur; Sorbo; Sorbogem 712; Sorbol; Sorbostyl

$$$$
