
  Mrv0541 02231218272D          

  7  6  0  0  1  0            999 V2000
    6.3252   -3.4163    0.0000 O   0  0  0  0  0  0  0  0  0  0  0  0
    6.3252   -4.2413    0.0000 C   0  0  0  0  0  0  0  0  0  0  0  0
    7.0396   -4.6538    0.0000 O   0  0  0  0  0  0  0  0  0  0  0  0
    5.6107   -4.6538    0.0000 C   0  0  2  0  0  0  0  0  0  0  0  0
    4.8962   -4.2413    0.0000 C   0  0  0  0  0  0  0  0  0  0  0  0
    5.6107   -5.4788    0.0000 C   0  0  0  0  0  0  0  0  0  0  0  0
    6.3252   -5.8912    0.0000 O   0  0  0  0  0  0  0  0  0  0  0  0
  2  1  2  0  0  0  0
  3  2  1  0  0  0  0
  4  2  1  0  0  0  0
  5  4  1  0  0  0  0
  4  6  1  1  0  0  0
  7  6  1  0  0  0  0
M  END
> <DATABASE_ID>
HMDB00336

> <DATABASE_NAME>
hmdb

> <SMILES>
C[C@H](CO)C(O)=O

> <INCHI_IDENTIFIER>
InChI=1S/C4H8O3/c1-3(2-5)4(6)7/h3,5H,2H2,1H3,(H,6,7)/t3-/m1/s1

> <INCHI_KEY>
DBXBTMSZEOQQDU-GSVOUGTGSA-N

> <FORMULA>
C4H8O3

> <MOLECULAR_WEIGHT>
104.1045

> <EXACT_MASS>
104.047344122

> <JCHEM_ACCEPTOR_COUNT>
3

> <JCHEM_AVERAGE_POLARIZABILITY>
9.982094489306728

> <JCHEM_BIOAVAILABILITY>
1

> <JCHEM_DONOR_COUNT>
2

> <JCHEM_FORMAL_CHARGE>
0

> <JCHEM_GHOSE_FILTER>
0

> <JCHEM_IUPAC>
(2R)-3-hydroxy-2-methylpropanoic acid

> <ALOGPS_LOGP>
-0.47

> <JCHEM_LOGP>
-0.26059474566666674

> <ALOGPS_LOGS>
0.74

> <JCHEM_MDDR_LIKE_RULE>
0

> <JCHEM_NUMBER_OF_RINGS>
0

> <JCHEM_PHYSIOLOGICAL_CHARGE>
-1

> <JCHEM_PKA>
15.518589741896943

> <JCHEM_PKA_STRONGEST_ACIDIC>
4.365338407814565

> <JCHEM_PKA_STRONGEST_BASIC>
-2.6927927583619056

> <JCHEM_POLAR_SURFACE_AREA>
57.53

> <JCHEM_REFRACTIVITY>
23.6198

> <JCHEM_ROTATABLE_BOND_COUNT>
2

> <JCHEM_RULE_OF_FIVE>
1

> <ALOGPS_SOLUBILITY>
5.71e+02 g/l

> <JCHEM_TRADITIONAL_IUPAC>
(R)-3-hydroxyisobutyric acid

> <JCHEM_VEBER_RULE>
0

> <HMDB_ID>
HMDB00336

> <GENERIC_NAME>
(R)-3-Hydroxyisobutyric acid

> <SYNONYMS>
(R)-3-Hydroxy-2-methylpropionate; (R)-3-Hydroxy-2-methylpropionic acid; 2-Methyl-(R)-Hydracrylate; 2-Methyl-(R)-Hydracrylic acid; 3-Hydroxy-2-methylpropionate; D-(-)-3-Hydroxyisobutyrate; D-(-)-3-Hydroxyisobutyric acid; D-b-Hydroxyisobutyrate; D-b-Hydroxyisobutyric acid; delta-(-)-3-Hydroxyisobutyrate; delta-(-)-3-Hydroxyisobutyric acid; delta-beta-Hydroxyisobutyrate; delta-beta-Hydroxyisobutyric acid; R-b-Hydroxyisobutyrate; R-b-Hydroxyisobutyric acid; R-beta-Hydroxyisobutyrate; R-beta-Hydroxyisobutyric acid

$$$$
