153
  Mrv0541 02231214282D          

 31 33  0  0  1  0            999 V2000
    1.6500   -3.9985    0.0000 O   0  0  0  0  0  0  0  0  0  0  0  0
    4.5080    0.9517    0.0000 C   0  0  2  0  0  0  0  0  0  0  0  0
    5.2886    1.2030    0.0000 C   0  0  2  0  0  0  0  0  0  0  0  0
    4.5080    0.1266    0.0000 C   0  0  1  0  0  0  0  0  0  0  0  0
    5.7701    0.5391    0.0000 C   0  0  0  0  0  0  0  0  0  0  0  0
    5.2886   -0.1247    0.0000 C   0  0  0  0  0  0  0  0  0  0  0  0
    3.7935    1.3642    0.0000 C   0  0  0  0  0  0  0  0  0  0  0  0
    5.5449    1.9872    0.0000 C   0  0  2  0  0  0  0  0  0  0  0  0
    3.7935   -0.2859    0.0000 C   0  0  0  0  0  0  0  0  0  0  0  0
    4.5080    1.7767    0.0000 C   0  0  0  0  0  0  0  0  0  0  0  0
    3.0791    0.9517    0.0000 C   0  0  0  0  0  0  0  0  0  0  0  0
    3.0791    0.1266    0.0000 C   0  0  0  0  0  0  0  0  0  0  0  0
    4.9939    2.6013    0.0000 C   0  0  0  0  0  0  0  0  0  0  0  0
    6.3522    2.1574    0.0000 C   0  0  0  0  0  0  0  0  0  0  0  0
    3.7935   -1.1109    0.0000 C   0  0  0  0  0  0  0  0  0  0  0  0
    6.6086    2.9416    0.0000 C   0  0  0  0  0  0  0  0  0  0  0  0
    3.0791   -1.5234    0.0000 C   0  0  0  0  0  0  0  0  0  0  0  0
    7.4158    3.1117    0.0000 C   0  0  1  0  0  0  0  0  0  0  0  0
    3.0791   -2.3484    0.0000 C   0  0  0  0  0  0  0  0  0  0  0  0
    7.6721    3.8959    0.0000 C   0  0  0  0  0  0  0  0  0  0  0  0
    2.3645   -2.7609    0.0000 C   0  0  0  0  0  0  0  0  0  0  0  0
    7.9668    2.4977    0.0000 C   0  0  0  0  0  0  0  0  0  0  0  0
    3.7935   -2.7609    0.0000 C   0  0  0  0  0  0  0  0  0  0  0  0
    2.3645   -3.5859    0.0000 C   0  0  2  0  0  0  0  0  0  0  0  0
    3.7935   -3.5859    0.0000 C   0  0  0  0  0  0  0  0  0  0  0  0
    3.0791   -3.9985    0.0000 C   0  0  0  0  0  0  0  0  0  0  0  0
    7.1211    4.5100    0.0000 C   0  0  0  0  0  0  0  0  0  0  0  0
    8.4794    4.0660    0.0000 C   0  0  0  0  0  0  0  0  0  0  0  0
    4.5080   -2.3484    0.0000 C   0  0  0  0  0  0  0  0  0  0  0  0
    5.9406    1.3054    0.0000 H   0  0  0  0  0  0  0  0  0  0  0  0
    4.5779   -0.5297    0.0000 H   0  0  0  0  0  0  0  0  0  0  0  0
 24  1  1  6  0  0  0
  2  3  1  0  0  0  0
  2  4  1  0  0  0  0
  2  7  1  0  0  0  0
  2 10  1  1  0  0  0
  3  5  1  0  0  0  0
  3  8  1  0  0  0  0
  3 30  1  6  0  0  0
  4  6  1  0  0  0  0
  4  9  1  0  0  0  0
  4 31  1  6  0  0  0
  5  6  1  0  0  0  0
  7 11  1  0  0  0  0
  8 13  1  6  0  0  0
  8 14  1  0  0  0  0
  9 12  1  0  0  0  0
  9 15  2  0  0  0  0
 11 12  1  0  0  0  0
 14 16  2  0  0  0  0
 15 17  1  0  0  0  0
 16 18  1  0  0  0  0
 17 19  2  0  0  0  0
 18 20  1  0  0  0  0
 18 22  1  1  0  0  0
 19 21  1  0  0  0  0
 19 23  1  0  0  0  0
 20 27  1  0  0  0  0
 20 28  1  0  0  0  0
 21 24  1  0  0  0  0
 23 25  1  0  0  0  0
 23 29  2  0  0  0  0
 24 26  1  0  0  0  0
 25 26  1  0  0  0  0
M  END
> <DATABASE_ID>
HMDB00900

> <DATABASE_NAME>
hmdb

> <SMILES>
CC(C)[C@@H](C)\C=C\[C@@H](C)[C@@]1([H])CC[C@@]2([H])\C(CCC[C@]12C)=C\C=C1\C[C@@H](O)CCC1=C

> <INCHI_IDENTIFIER>
InChI=1S/C28H44O/c1-19(2)20(3)9-10-22(5)26-15-16-27-23(8-7-17-28(26,27)6)12-13-24-18-25(29)14-11-21(24)4/h9-10,12-13,19-20,22,25-27,29H,4,7-8,11,14-18H2,1-3,5-6H3/b10-9+,23-12+,24-13-/t20-,22+,25-,26+,27-,28+/m0/s1

> <INCHI_KEY>
MECHNRXZTMCUDQ-RKHKHRCZSA-N

> <FORMULA>
C28H44O

> <MOLECULAR_WEIGHT>
396.6484

> <EXACT_MASS>
396.33921603

> <JCHEM_ACCEPTOR_COUNT>
1

> <JCHEM_AVERAGE_POLARIZABILITY>
50.73329446982394

> <JCHEM_BIOAVAILABILITY>
1

> <JCHEM_DONOR_COUNT>
1

> <JCHEM_FORMAL_CHARGE>
0

> <JCHEM_GHOSE_FILTER>
0

> <JCHEM_IUPAC>
(1S,3Z)-3-{2-[(1R,3aS,4E,7aR)-1-[(2R,3E,5R)-5,6-dimethylhept-3-en-2-yl]-7a-methyl-octahydro-1H-inden-4-ylidene]ethylidene}-4-methylidenecyclohexan-1-ol

> <ALOGPS_LOGP>
7.59

> <JCHEM_LOGP>
7.050558194333334

> <ALOGPS_LOGS>
-5.96

> <JCHEM_MDDR_LIKE_RULE>
0

> <JCHEM_NUMBER_OF_RINGS>
3

> <JCHEM_PHYSIOLOGICAL_CHARGE>
0

> <JCHEM_PKA_STRONGEST_ACIDIC>
18.384341369959035

> <JCHEM_PKA_STRONGEST_BASIC>
-1.3184890847799178

> <JCHEM_POLAR_SURFACE_AREA>
20.23

> <JCHEM_REFRACTIVITY>
128.88969999999998

> <JCHEM_ROTATABLE_BOND_COUNT>
5

> <JCHEM_RULE_OF_FIVE>
0

> <ALOGPS_SOLUBILITY>
4.33e-04 g/l

> <JCHEM_TRADITIONAL_IUPAC>
ergocalciferol

> <JCHEM_VEBER_RULE>
1

> <HMDB_ID>
HMDB00900

> <GENERIC_NAME>
Ergocalciferol

> <SYNONYMS>
(+)-Vitamin D2; (5E,7E,22E)-9,10-Secoergosta-5,7,10,22-tetraen-3-ol; 22-Tetraen 3beta 9,10,Secoergosta-5,7,10(19)-ol; 4-Methylene-3-[2-[tetrahydro-7a-methyl-1-(1,4,5-trimethyl-2-hexenyl)-4(3aH)-indanylidene]ethylidene]-Cyclohexanol; 9,10-Secoergosta-5,7,10(19),22-tetraen-3b-ol; beta-Ol; Buco-D; Calciferol; Calciferon 2; Condacaps; Condocaps; Condol; Crtron; Crystallina; D-Arthin; D-Tracetten; Daral; Davitamon D; Davitin; De-rat concentrate; Decaps; Dee-Osterol; Dee-Ron; Dee-Ronal; Dee-Roual; delta-Arthin; delta-Tracetten; Deltalin; Deratol; Detalup; Diactol; Divit urto; Doral; Drisdol; Ercalciol; Ergocalciferol; Ergocalciferol oil; Ergorone; Ergosterol activated; Ergosterol irradiated; Ertron; Fortodyl; Geltabs; Hi-Deratol; Infron; Irradiated ergosta-5,7,22-trien-3beta-ol; Metadee; Mina D2; Mulsiferol; Mykostin; Novovitamin-D; Oleovitamin D; Oleovitamin D2; Osteil; Ostelin; Radiostol; Radstein; Radsterin; Rodine C; Shock-ferol; Shock-ferol sterogyl; Sterogyl; Synthetic Vitamin D; Uvesterol D; Uvesterol-D; Vio D; Vio-D; Viostdrol; Viosterol; Viosterol in Oil; Vitamin D2; Vitavel-D

$$$$
