
  Mrv0541 02231217272D          

  9  9  0  0  0  0            999 V2000
    2.1434   -0.4125    0.0000 C   0  0  0  0  0  0  0  0  0  0  0  0
    1.4289    0.0000    0.0000 C   0  0  0  0  0  0  0  0  0  0  0  0
    0.7145   -0.4125    0.0000 C   0  0  0  0  0  0  0  0  0  0  0  0
    0.0000    0.0000    0.0000 C   0  0  0  0  0  0  0  0  0  0  0  0
    0.0000    0.8250    0.0000 C   0  0  0  0  0  0  0  0  0  0  0  0
   -0.7145    1.2375    0.0000 O   0  0  0  0  0  0  0  0  0  0  0  0
    0.7145    1.2375    0.0000 C   0  0  0  0  0  0  0  0  0  0  0  0
    0.7145    2.0625    0.0000 O   0  0  0  0  0  0  0  0  0  0  0  0
    1.4289    0.8250    0.0000 C   0  0  0  0  0  0  0  0  0  0  0  0
  1  2  1  0  0  0  0
  2  3  2  0  0  0  0
  3  4  1  0  0  0  0
  4  5  2  0  0  0  0
  5  6  1  0  0  0  0
  5  7  1  0  0  0  0
  7  8  1  0  0  0  0
  7  9  2  0  0  0  0
  2  9  1  0  0  0  0
M  END
> <DATABASE_ID>
HMDB00873

> <DATABASE_NAME>
hmdb

> <SMILES>
CC1=CC=C(O)C(O)=C1

> <INCHI_IDENTIFIER>
InChI=1S/C7H8O2/c1-5-2-3-6(8)7(9)4-5/h2-4,8-9H,1H3

> <INCHI_KEY>
ZBCATMYQYDCTIZ-UHFFFAOYSA-N

> <FORMULA>
C7H8O2

> <MOLECULAR_WEIGHT>
124.1372

> <EXACT_MASS>
124.0524295

> <JCHEM_ACCEPTOR_COUNT>
2

> <JCHEM_AVERAGE_POLARIZABILITY>
12.819134798454892

> <JCHEM_BIOAVAILABILITY>
1

> <JCHEM_DONOR_COUNT>
2

> <JCHEM_FORMAL_CHARGE>
0

> <JCHEM_GHOSE_FILTER>
0

> <JCHEM_IUPAC>
4-methylbenzene-1,2-diol

> <ALOGPS_LOGP>
1.02

> <JCHEM_LOGP>
1.8795365619999997

> <ALOGPS_LOGS>
-0.52

> <JCHEM_MDDR_LIKE_RULE>
0

> <JCHEM_NUMBER_OF_RINGS>
1

> <JCHEM_PHYSIOLOGICAL_CHARGE>
0

> <JCHEM_PKA>
13.01183434905554

> <JCHEM_PKA_STRONGEST_ACIDIC>
9.552176595160123

> <JCHEM_PKA_STRONGEST_BASIC>
-6.244242730605078

> <JCHEM_POLAR_SURFACE_AREA>
40.46

> <JCHEM_REFRACTIVITY>
35.06099999999999

> <JCHEM_ROTATABLE_BOND_COUNT>
0

> <JCHEM_RULE_OF_FIVE>
1

> <ALOGPS_SOLUBILITY>
3.79e+01 g/l

> <JCHEM_TRADITIONAL_IUPAC>
4-methyl-1,2-benzenediol

> <JCHEM_VEBER_RULE>
0

> <HMDB_ID>
HMDB00873

> <GENERIC_NAME>
4-Methylcatechol

> <SYNONYMS>
1,2-Dihydroxy-4-methylbenzene; 1-Methyl-3,4-dihydroxybenzene; 2-Hydroxy-4-methylphenol; 3,4-Dihydroxytoluene; 4-Methyl-1,2-benzenediol; 4-Methyl-1,2-dihydroxybenzene; 4-Methyl-Pyrocatechol; 4-Methylcatechol; 4-Methylcatehol; 4-Methylpyrocatechol; 4-Metylcatechol; 5-Methylcatechol; Homocatechol; Homopyrocatechol; p-Methylcatechol; p-Methylpyrocatechol; Toluene-3,4-diol

$$$$
