Tetrahydro-11-deoxycorticosterone.mol
  Mrv0541 02231218472D          

 18 17  0  0  0  0            999 V2000
    4.2868    0.4125    0.0000 C   0  0  0  0  0  0  0  0  0  0  0  0
    4.2868   -0.4125    0.0000 C   0  0  0  0  0  0  0  0  0  0  0  0
    3.5724   -0.8250    0.0000 C   0  0  0  0  0  0  0  0  0  0  0  0
    2.8579   -0.4125    0.0000 C   0  0  0  0  0  0  0  0  0  0  0  0
    2.1434   -0.8250    0.0000 C   0  0  0  0  0  0  0  0  0  0  0  0
    1.4289   -0.4125    0.0000 C   0  0  0  0  0  0  0  0  0  0  0  0
    0.7145   -0.8250    0.0000 C   0  0  0  0  0  0  0  0  0  0  0  0
    0.0000   -0.4125    0.0000 C   0  0  0  0  0  0  0  0  0  0  0  0
   -0.7145   -0.8250    0.0000 C   0  0  0  0  0  0  0  0  0  0  0  0
   -1.4289   -0.4125    0.0000 C   0  0  0  0  0  0  0  0  0  0  0  0
   -2.1434   -0.8250    0.0000 C   0  0  0  0  0  0  0  0  0  0  0  0
   -2.8579   -0.4125    0.0000 C   0  0  0  0  0  0  0  0  0  0  0  0
   -3.5724   -0.8250    0.0000 C   0  0  0  0  0  0  0  0  0  0  0  0
   -4.2868   -0.4125    0.0000 C   0  0  0  0  0  0  0  0  0  0  0  0
    3.5724    0.8250    0.0000 O   0  0  0  0  0  0  0  0  0  0  0  0
    5.0013    0.8250    0.0000 O   0  0  0  0  0  0  0  0  0  0  0  0
   -4.2868    0.4125    0.0000 O   0  0  0  0  0  0  0  0  0  0  0  0
   -5.0013   -0.8250    0.0000 O   0  0  0  0  0  0  0  0  0  0  0  0
  1  2  1  0  0  0  0
  2  3  1  0  0  0  0
  3  4  1  0  0  0  0
  4  5  1  0  0  0  0
  5  6  1  0  0  0  0
  6  7  1  0  0  0  0
  7  8  1  0  0  0  0
  8  9  1  0  0  0  0
  9 10  1  0  0  0  0
 10 11  1  0  0  0  0
 11 12  1  0  0  0  0
 12 13  1  0  0  0  0
 13 14  1  0  0  0  0
  1 15  2  0  0  0  0
  1 16  1  0  0  0  0
 14 17  2  0  0  0  0
 14 18  1  0  0  0  0
M  END
> <DATABASE_ID>
HMDB00872

> <DATABASE_NAME>
hmdb

> <SMILES>
OC(=O)CCCCCCCCCCCCC(O)=O

> <INCHI_IDENTIFIER>
InChI=1S/C14H26O4/c15-13(16)11-9-7-5-3-1-2-4-6-8-10-12-14(17)18/h1-12H2,(H,15,16)(H,17,18)

> <INCHI_KEY>
HQHCYKULIHKCEB-UHFFFAOYSA-N

> <FORMULA>
C14H26O4

> <MOLECULAR_WEIGHT>
258.3538

> <EXACT_MASS>
258.18310932

> <JCHEM_ACCEPTOR_COUNT>
4

> <JCHEM_AVERAGE_POLARIZABILITY>
31.10951226001049

> <JCHEM_BIOAVAILABILITY>
1

> <JCHEM_DONOR_COUNT>
2

> <JCHEM_FORMAL_CHARGE>
0

> <JCHEM_GHOSE_FILTER>
1

> <JCHEM_IUPAC>
tetradecanedioic acid

> <ALOGPS_LOGP>
3.63

> <JCHEM_LOGP>
4.047203682666666

> <ALOGPS_LOGS>
-3.85

> <JCHEM_MDDR_LIKE_RULE>
0

> <JCHEM_NUMBER_OF_RINGS>
0

> <JCHEM_PHYSIOLOGICAL_CHARGE>
-2

> <JCHEM_PKA>
5.253049650892543

> <JCHEM_PKA_STRONGEST_ACIDIC>
4.650989659564581

> <JCHEM_POLAR_SURFACE_AREA>
74.6

> <JCHEM_REFRACTIVITY>
69.547

> <JCHEM_ROTATABLE_BOND_COUNT>
13

> <JCHEM_RULE_OF_FIVE>
1

> <ALOGPS_SOLUBILITY>
3.61e-02 g/l

> <JCHEM_TRADITIONAL_IUPAC>
tetradecanedioic acid

> <JCHEM_VEBER_RULE>
0

> <HMDB_ID>
HMDB00872

> <GENERIC_NAME>
Tetradecanedioic acid

> <SYNONYMS>
1,12-Dodecanedicarboxylate; 1,12-Dodecanedicarboxylic acid; 1,14-Tetradecanedioate; 1,14-Tetradecanedioic acid; Dodecamethylenedicarboxylate; Dodecamethylenedicarboxylic acid; Tetradecane-1,14-dioate; Tetradecane-1,14-dioic acid; Tetradecanedicarboxylate; Tetradecanedicarboxylic acid; Tetradecanedioate; Tetradecanedioic acid

$$$$
