
  Mrv0541 02231218352D          

 11 10  0  0  1  0            999 V2000
   27.7039  -11.9668    0.0000 O   0  0  0  0  0  0  0  0  0  0  0  0
   26.9894  -13.2044    0.0000 O   0  0  0  0  0  0  0  0  0  0  0  0
   22.7024  -12.3794    0.0000 O   0  0  0  0  0  0  0  0  0  0  0  0
   23.4169  -11.1418    0.0000 O   0  0  0  0  0  0  0  0  0  0  0  0
   25.5604  -12.3794    0.0000 C   0  0  1  0  0  0  0  0  0  0  0  0
   24.8459  -11.9668    0.0000 C   0  0  0  0  0  0  0  0  0  0  0  0
   26.2748  -11.9668    0.0000 C   0  0  0  0  0  0  0  0  0  0  0  0
   25.5604  -13.2044    0.0000 C   0  0  0  0  0  0  0  0  0  0  0  0
   24.1315  -12.3794    0.0000 C   0  0  0  0  0  0  0  0  0  0  0  0
   26.9894  -12.3794    0.0000 C   0  0  0  0  0  0  0  0  0  0  0  0
   23.4169  -11.9668    0.0000 C   0  0  0  0  0  0  0  0  0  0  0  0
  1 10  1  0  0  0  0
  2 10  2  0  0  0  0
  3 11  1  0  0  0  0
  4 11  2  0  0  0  0
  5  6  1  0  0  0  0
  5  7  1  0  0  0  0
  5  8  1  1  0  0  0
  6  9  1  0  0  0  0
  7 10  1  0  0  0  0
  9 11  1  0  0  0  0
M  END
> <DATABASE_ID>
HMDB00555

> <DATABASE_NAME>
hmdb

> <SMILES>
C[C@@H](CCC(O)=O)CC(O)=O

> <INCHI_IDENTIFIER>
InChI=1S/C7H12O4/c1-5(4-7(10)11)2-3-6(8)9/h5H,2-4H2,1H3,(H,8,9)(H,10,11)/t5-/m0/s1

> <INCHI_KEY>
SYEOWUNSTUDKGM-YFKPBYRVSA-N

> <FORMULA>
C7H12O4

> <MOLECULAR_WEIGHT>
160.1678

> <EXACT_MASS>
160.073558872

> <JCHEM_ACCEPTOR_COUNT>
4

> <JCHEM_AVERAGE_POLARIZABILITY>
15.897393534217603

> <JCHEM_BIOAVAILABILITY>
1

> <JCHEM_DONOR_COUNT>
2

> <JCHEM_FORMAL_CHARGE>
0

> <JCHEM_GHOSE_FILTER>
0

> <JCHEM_IUPAC>
(3S)-3-methylhexanedioic acid

> <ALOGPS_LOGP>
0.65

> <JCHEM_LOGP>
0.777673459

> <ALOGPS_LOGS>
-0.98

> <JCHEM_MDDR_LIKE_RULE>
0

> <JCHEM_NUMBER_OF_RINGS>
0

> <JCHEM_PHYSIOLOGICAL_CHARGE>
-2

> <JCHEM_PKA>
4.808214919925216

> <JCHEM_PKA_STRONGEST_ACIDIC>
4.043116214614612

> <JCHEM_POLAR_SURFACE_AREA>
74.6

> <JCHEM_REFRACTIVITY>
37.287600000000005

> <JCHEM_ROTATABLE_BOND_COUNT>
5

> <JCHEM_RULE_OF_FIVE>
1

> <ALOGPS_SOLUBILITY>
1.68e+01 g/l

> <JCHEM_TRADITIONAL_IUPAC>
(3S)-3-methylhexanedioic acid

> <JCHEM_VEBER_RULE>
0

> <HMDB_ID>
HMDB00555

> <GENERIC_NAME>
3-Methyladipic acid

> <SYNONYMS>
(+/-)-3-Methyladipic acid; 3-Methyl-hexanedioate; 3-Methyl-hexanedioic acid; 3-Methyladipate; 3-Methylhexanedioate; 3-Methylhexanedioic acid; b-Methyl-Adipic acid; B-Methyladipate; B-Methyladipic acid; beta-Methyl-Adipic acid; beta-Methyladipate; beta-Methyladipic acid

$$$$
