HMDB00829.mol
  Mrv0541 02231218462D          

 40 39  0  0  0  0            999 V2000
    3.9179    6.0725    0.0000 C   0  0  0  0  0  0  0  0  0  0  0  0
    4.7429    6.0725    0.0000 C   0  0  0  0  0  0  0  0  0  0  0  0
    5.1554    6.7869    0.0000 C   0  0  0  0  0  0  0  0  0  0  0  0
    3.5054    6.7869    0.0000 O   0  0  0  0  0  0  0  0  0  0  0  0
    4.7429    7.5013    0.0000 O   0  0  0  0  0  0  0  0  0  0  0  0
    5.1554    5.3580    0.0000 N   0  0  0  0  0  0  0  0  0  0  0  0
    4.7436    4.6448    0.0000 C   0  0  0  0  0  0  0  0  0  0  0  0
    5.1565    3.9297    0.0000 C   0  0  0  0  0  0  0  0  0  0  0  0
    4.7441    3.2155    0.0000 C   0  0  0  0  0  0  0  0  0  0  0  0
    5.1567    2.5009    0.0000 C   0  0  0  0  0  0  0  0  0  0  0  0
    4.7443    1.7866    0.0000 C   0  0  0  0  0  0  0  0  0  0  0  0
    5.1568    1.0721    0.0000 C   0  0  0  0  0  0  0  0  0  0  0  0
    4.7443    0.3577    0.0000 C   0  0  0  0  0  0  0  0  0  0  0  0
    5.1568   -0.3568    0.0000 C   0  0  0  0  0  0  0  0  0  0  0  0
    4.7443   -1.0713    0.0000 C   0  0  0  0  0  0  0  0  0  0  0  0
    5.1568   -1.7857    0.0000 C   0  0  0  0  0  0  0  0  0  0  0  0
    4.7443   -2.5001    0.0000 C   0  0  0  0  0  0  0  0  0  0  0  0
    5.1568   -3.2146    0.0000 C   0  0  0  0  0  0  0  0  0  0  0  0
    4.7443   -3.9291    0.0000 C   0  0  0  0  0  0  0  0  0  0  0  0
    5.1568   -4.6435    0.0000 C   0  0  0  0  0  0  0  0  0  0  0  0
    4.7443   -5.3580    0.0000 C   0  0  0  0  0  0  0  0  0  0  0  0
    5.1568   -6.0725    0.0000 C   0  0  0  0  0  0  0  0  0  0  0  0
    4.7443   -6.7869    0.0000 C   0  0  0  0  0  0  0  0  0  0  0  0
    5.1568   -7.5013    0.0000 C   0  0  0  0  0  0  0  0  0  0  0  0
    3.9194    4.6448    0.0000 O   0  0  0  0  0  0  0  0  0  0  0  0
    3.5054    5.3580    0.0000 C   0  0  0  0  0  0  0  0  0  0  0  0
    2.6804    5.3580    0.0000 C   0  0  0  0  0  0  0  0  0  0  0  0
    2.2680    4.6435    0.0000 C   0  0  0  0  0  0  0  0  0  0  0  0
    1.4430    4.6435    0.0000 C   0  0  0  0  0  0  0  0  0  0  0  0
    1.0305    3.9290    0.0000 C   0  0  0  0  0  0  0  0  0  0  0  0
    0.2055    3.9290    0.0000 C   0  0  0  0  0  0  0  0  0  0  0  0
   -0.2070    3.2146    0.0000 C   0  0  0  0  0  0  0  0  0  0  0  0
   -1.0319    3.2146    0.0000 C   0  0  0  0  0  0  0  0  0  0  0  0
   -1.4444    2.5001    0.0000 C   0  0  0  0  0  0  0  0  0  0  0  0
   -2.2694    2.5001    0.0000 C   0  0  0  0  0  0  0  0  0  0  0  0
   -2.6820    1.7857    0.0000 C   0  0  0  0  0  0  0  0  0  0  0  0
   -3.5069    1.7857    0.0000 C   0  0  0  0  0  0  0  0  0  0  0  0
   -3.9194    1.0713    0.0000 C   0  0  0  0  0  0  0  0  0  0  0  0
   -4.7443    1.0713    0.0000 C   0  0  0  0  0  0  0  0  0  0  0  0
   -5.1568    0.3568    0.0000 C   0  0  0  0  0  0  0  0  0  0  0  0
  1  2  1  0  0  0  0
  2  3  1  0  0  0  0
  1  4  1  0  0  0  0
  3  5  1  0  0  0  0
  2  6  1  0  0  0  0
  6  7  1  0  0  0  0
  8  7  1  0  0  0  0
  9  8  1  0  0  0  0
 10  9  1  0  0  0  0
 11 10  1  0  0  0  0
 12 11  1  0  0  0  0
 13 12  1  0  0  0  0
 14 13  1  0  0  0  0
 15 14  1  0  0  0  0
 16 15  1  0  0  0  0
 17 16  1  0  0  0  0
 18 17  1  0  0  0  0
 19 18  1  0  0  0  0
 20 19  1  0  0  0  0
 21 20  1  0  0  0  0
 22 21  1  0  0  0  0
 23 22  1  0  0  0  0
 24 23  1  0  0  0  0
  7 25  2  0  0  0  0
 26  1  1  0  0  0  0
 27 26  2  0  0  0  0
 28 27  1  0  0  0  0
 29 28  1  0  0  0  0
 30 29  1  0  0  0  0
 31 30  1  0  0  0  0
 32 31  1  0  0  0  0
 33 32  1  0  0  0  0
 34 33  1  0  0  0  0
 35 34  1  0  0  0  0
 36 35  1  0  0  0  0
 37 36  1  0  0  0  0
 38 37  1  0  0  0  0
 39 38  1  0  0  0  0
 40 39  1  0  0  0  0
M  END
> <DATABASE_ID>
HMDB00829

> <DATABASE_NAME>
hmdb

> <SMILES>
CCCCCCCCCCCCCCCCCC(=O)NC(CO)C(O)\C=C\CCCCCCCCCCCCC

> <INCHI_IDENTIFIER>
InChI=1S/C36H71NO3/c1-3-5-7-9-11-13-15-17-18-20-22-24-26-28-30-32-36(40)37-34(33-38)35(39)31-29-27-25-23-21-19-16-14-12-10-8-6-4-2/h29,31,34-35,38-39H,3-28,30,32-33H2,1-2H3,(H,37,40)/b31-29+

> <INCHI_KEY>
VODZWWMEJITOND-OWWNRXNESA-N

> <FORMULA>
C36H71NO3

> <MOLECULAR_WEIGHT>
565.9538

> <EXACT_MASS>
565.543395143

> <JCHEM_ACCEPTOR_COUNT>
3

> <JCHEM_AVERAGE_POLARIZABILITY>
77.91693697542014

> <JCHEM_BIOAVAILABILITY>
0

> <JCHEM_DONOR_COUNT>
3

> <JCHEM_FORMAL_CHARGE>
0

> <JCHEM_GHOSE_FILTER>
0

> <JCHEM_IUPAC>
N-[(4E)-1,3-dihydroxyoctadec-4-en-2-yl]octadecanamide

> <ALOGPS_LOGP>
9.78

> <JCHEM_LOGP>
11.754492473666666

> <ALOGPS_LOGS>
-7.25

> <JCHEM_MDDR_LIKE_RULE>
0

> <JCHEM_NUMBER_OF_RINGS>
0

> <JCHEM_PHYSIOLOGICAL_CHARGE>
0

> <JCHEM_PKA>
14.235174526466391

> <JCHEM_PKA_STRONGEST_ACIDIC>
13.619749059447084

> <JCHEM_PKA_STRONGEST_BASIC>
0.019866689033367968

> <JCHEM_POLAR_SURFACE_AREA>
69.56

> <JCHEM_REFRACTIVITY>
174.9777

> <JCHEM_ROTATABLE_BOND_COUNT>
32

> <JCHEM_RULE_OF_FIVE>
0

> <ALOGPS_SOLUBILITY>
3.21e-05 g/l

> <JCHEM_TRADITIONAL_IUPAC>
N-[(4E)-1,3-dihydroxyoctadec-4-en-2-yl]octadecanamide

> <JCHEM_VEBER_RULE>
0

> <HMDB_ID>
HMDB00829

> <GENERIC_NAME>
N-Stearoylsphingosine

> <SYNONYMS>
(E)-D-erythro-N-[2-hydroxy-1-(hydroxymethyl)-3-heptadecenyl]-Octadecanamide; C18 Ceramide; Ceramide C18; D-Erythro-1,3-Dihydroxy-2-octadecanoylamido-trans-4-octadecene; N-Stearoyl-C18-sphing; N-Stearoyl-D-erythro-sphingosine; N-Stearoyl-D-erythro-spinghosine; N-Stearoyl-D-sphingosine; N-Stearoylsphingosine; Stearoyl Ceramide; [R-[R*,S*-(E)]]-N-[2-hydroxy-1-(hydroxymethyl)-3-heptadecenyl]-Octadecanamide

$$$$
