
  Mrv0541 02231219302D          

 30 29  0  0  0  0            999 V2000
   13.5563   -9.9420    0.0000 O   0  0  0  0  0  0  0  0  0  0  0  0
   14.2708  -11.1796    0.0000 O   0  0  0  0  0  0  0  0  0  0  0  0
   24.2736  -10.3545    0.0000 C   0  0  0  0  0  0  0  0  0  0  0  0
   23.5591   -9.9420    0.0000 C   0  0  0  0  0  0  0  0  0  0  0  0
   24.9881   -9.9420    0.0000 C   0  0  0  0  0  0  0  0  0  0  0  0
   22.8447  -10.3545    0.0000 C   0  0  0  0  0  0  0  0  0  0  0  0
   25.7026  -10.3545    0.0000 C   0  0  0  0  0  0  0  0  0  0  0  0
   22.1301   -9.9420    0.0000 C   0  0  0  0  0  0  0  0  0  0  0  0
   26.4171   -9.9420    0.0000 C   0  0  0  0  0  0  0  0  0  0  0  0
   21.4157  -10.3545    0.0000 C   0  0  0  0  0  0  0  0  0  0  0  0
   27.1315  -10.3545    0.0000 C   0  0  0  0  0  0  0  0  0  0  0  0
   20.7012   -9.9420    0.0000 C   0  0  0  0  0  0  0  0  0  0  0  0
   27.8460   -9.9420    0.0000 C   0  0  0  0  0  0  0  0  0  0  0  0
   19.9867  -10.3545    0.0000 C   0  0  0  0  0  0  0  0  0  0  0  0
   28.5606  -10.3545    0.0000 C   0  0  0  0  0  0  0  0  0  0  0  0
   19.2722   -9.9420    0.0000 C   0  0  0  0  0  0  0  0  0  0  0  0
   29.2750   -9.9420    0.0000 C   0  0  0  0  0  0  0  0  0  0  0  0
   18.5577  -10.3545    0.0000 C   0  0  0  0  0  0  0  0  0  0  0  0
   29.9895  -10.3545    0.0000 C   0  0  0  0  0  0  0  0  0  0  0  0
   17.8432   -9.9420    0.0000 C   0  0  0  0  0  0  0  0  0  0  0  0
   30.7040   -9.9420    0.0000 C   0  0  0  0  0  0  0  0  0  0  0  0
   17.1288  -10.3545    0.0000 C   0  0  0  0  0  0  0  0  0  0  0  0
   31.4185  -10.3545    0.0000 C   0  0  0  0  0  0  0  0  0  0  0  0
   16.4142   -9.9420    0.0000 C   0  0  0  0  0  0  0  0  0  0  0  0
   32.1330   -9.9420    0.0000 C   0  0  0  0  0  0  0  0  0  0  0  0
   15.6998  -10.3545    0.0000 C   0  0  0  0  0  0  0  0  0  0  0  0
   32.8474  -10.3545    0.0000 C   0  0  0  0  0  0  0  0  0  0  0  0
   14.9853   -9.9420    0.0000 C   0  0  0  0  0  0  0  0  0  0  0  0
   33.5619   -9.9420    0.0000 C   0  0  0  0  0  0  0  0  0  0  0  0
   14.2708  -10.3545    0.0000 C   0  0  0  0  0  0  0  0  0  0  0  0
  1 30  1  0  0  0  0
  2 30  2  0  0  0  0
  3  4  1  0  0  0  0
  3  5  1  0  0  0  0
  4  6  1  0  0  0  0
  5  7  1  0  0  0  0
  6  8  1  0  0  0  0
  7  9  1  0  0  0  0
  8 10  1  0  0  0  0
  9 11  1  0  0  0  0
 10 12  1  0  0  0  0
 11 13  1  0  0  0  0
 12 14  1  0  0  0  0
 13 15  1  0  0  0  0
 14 16  1  0  0  0  0
 15 17  1  0  0  0  0
 16 18  1  0  0  0  0
 17 19  1  0  0  0  0
 18 20  1  0  0  0  0
 19 21  1  0  0  0  0
 20 22  1  0  0  0  0
 21 23  1  0  0  0  0
 22 24  1  0  0  0  0
 23 25  1  0  0  0  0
 24 26  1  0  0  0  0
 25 27  1  0  0  0  0
 26 28  1  0  0  0  0
 27 29  1  0  0  0  0
 28 30  1  0  0  0  0
M  END
> <DATABASE_ID>
HMDB02348

> <DATABASE_NAME>
hmdb

> <SMILES>
CCCCCCCCCCCCCCCCCCCCCCCCCCCC(O)=O

> <INCHI_IDENTIFIER>
InChI=1S/C28H56O2/c1-2-3-4-5-6-7-8-9-10-11-12-13-14-15-16-17-18-19-20-21-22-23-24-25-26-27-28(29)30/h2-27H2,1H3,(H,29,30)

> <INCHI_KEY>
UTOPWMOLSKOLTQ-UHFFFAOYSA-N

> <FORMULA>
C28H56O2

> <MOLECULAR_WEIGHT>
424.743

> <EXACT_MASS>
424.428031036

> <JCHEM_ACCEPTOR_COUNT>
2

> <JCHEM_AVERAGE_POLARIZABILITY>
60.168437547155094

> <JCHEM_BIOAVAILABILITY>
0

> <JCHEM_DONOR_COUNT>
1

> <JCHEM_FORMAL_CHARGE>
0

> <JCHEM_GHOSE_FILTER>
0

> <JCHEM_IUPAC>
octacosanoic acid

> <ALOGPS_LOGP>
10.11

> <JCHEM_LOGP>
11.591406757666666

> <ALOGPS_LOGS>
-7.44

> <JCHEM_MDDR_LIKE_RULE>
0

> <JCHEM_NUMBER_OF_RINGS>
0

> <JCHEM_PHYSIOLOGICAL_CHARGE>
-1

> <JCHEM_PKA_STRONGEST_ACIDIC>
4.952019655228562

> <JCHEM_POLAR_SURFACE_AREA>
37.3

> <JCHEM_REFRACTIVITY>
132.2956

> <JCHEM_ROTATABLE_BOND_COUNT>
26

> <JCHEM_RULE_OF_FIVE>
0

> <ALOGPS_SOLUBILITY>
1.53e-05 g/l

> <JCHEM_TRADITIONAL_IUPAC>
octacosanoic acid

> <JCHEM_VEBER_RULE>
0

> <HMDB_ID>
HMDB02348

> <GENERIC_NAME>
Octacosanoic acid

> <SYNONYMS>
Montanate; Montanic acid; N-Octacosanoate; N-Octacosanoic acid; Octacosanoate; Octacosanoic acid; Octacosoate; Octacosoic acid

$$$$
