(R)-3-Hydroxybutyric acid.mol
  Mrv0541 02231218172D          

  7  6  0  0  0  0            999 V2000
    0.7145   -0.2062    0.0000 C   0  0  0  0  0  0  0  0  0  0  0  0
    0.0000   -0.6186    0.0000 C   0  0  0  0  0  0  0  0  0  0  0  0
   -0.7145   -0.2062    0.0000 C   0  0  1  0  0  0  0  0  0  0  0  0
   -1.4288   -0.6186    0.0000 C   0  0  0  0  0  0  0  0  0  0  0  0
    0.7145    0.6186    0.0000 O   0  0  0  0  0  0  0  0  0  0  0  0
    1.4288   -0.6186    0.0000 O   0  0  0  0  0  0  0  0  0  0  0  0
   -0.7145    0.6186    0.0000 O   0  0  0  0  0  0  0  0  0  0  0  0
  1  2  1  0  0  0  0
  2  3  1  0  0  0  0
  3  4  1  0  0  0  0
  1  5  2  0  0  0  0
  1  6  1  0  0  0  0
  3  7  1  1  0  0  0
M  END
> <DATABASE_ID>
HMDB00011

> <DATABASE_NAME>
hmdb

> <SMILES>
C[C@@H](O)CC(O)=O

> <INCHI_IDENTIFIER>
InChI=1S/C4H8O3/c1-3(5)2-4(6)7/h3,5H,2H2,1H3,(H,6,7)/t3-/m1/s1

> <INCHI_KEY>
WHBMMWSBFZVSSR-GSVOUGTGSA-N

> <FORMULA>
C4H8O3

> <MOLECULAR_WEIGHT>
104.1045

> <EXACT_MASS>
104.047344122

> <JCHEM_ACCEPTOR_COUNT>
3

> <JCHEM_AVERAGE_POLARIZABILITY>
9.95978897008179

> <JCHEM_BIOAVAILABILITY>
1

> <JCHEM_DONOR_COUNT>
2

> <JCHEM_FORMAL_CHARGE>
0

> <JCHEM_GHOSE_FILTER>
0

> <JCHEM_IUPAC>
(3R)-3-hydroxybutanoic acid

> <ALOGPS_LOGP>
-0.50

> <JCHEM_LOGP>
-0.38700599933333335

> <ALOGPS_LOGS>
0.71

> <JCHEM_MDDR_LIKE_RULE>
0

> <JCHEM_NUMBER_OF_RINGS>
0

> <JCHEM_PHYSIOLOGICAL_CHARGE>
-1

> <JCHEM_PKA>
15.695695082377142

> <JCHEM_PKA_STRONGEST_ACIDIC>
4.406291419798768

> <JCHEM_PKA_STRONGEST_BASIC>
-2.6205133689113183

> <JCHEM_POLAR_SURFACE_AREA>
57.53

> <JCHEM_REFRACTIVITY>
23.464100000000002

> <JCHEM_ROTATABLE_BOND_COUNT>
2

> <JCHEM_RULE_OF_FIVE>
1

> <ALOGPS_SOLUBILITY>
5.39e+02 g/l

> <JCHEM_TRADITIONAL_IUPAC>
(-)-3-hydroxybutyric acid

> <JCHEM_VEBER_RULE>
0

> <HMDB_ID>
HMDB00011

> <GENERIC_NAME>
(R)-3-Hydroxybutyric acid

> <SYNONYMS>
(R)-(-)-b-Hydroxybutyrate; (R)-(-)-b-Hydroxybutyric acid; (R)-(-)-beta-Hydroxybutyrate; (R)-(-)-beta-Hydroxybutyric acid; (R)-3-Hydroxybutanoate; (R)-3-Hydroxybutanoic acid; (R)-3-Hydroxybutyrate; 3-D-Hydroxybutyrate; 3-D-Hydroxybutyric acid; 3-delta-Hydroxybutyrate; 3-delta-Hydroxybutyric acid; BHIB; D-(-)-3-Hydroxybutyrate; D-3-Hydroxybutyrate; D-3-Hydroxybutyric acid; D-beta-Hydroxybutyrate; delta-(-)-3-Hydroxybutyrate; delta-3-Hydroxybutyrate; delta-3-Hydroxybutyric acid; delta-beta-Hydroxybutyrate

$$$$
