
  Mrv0541 02231218262D          

 14 14  0  0  1  0            999 V2000
   11.7973   -6.0856    0.0000 O   0  0  0  0  0  0  0  0  0  0  0  0
   12.5119   -3.1981    0.0000 O   0  0  0  0  0  0  0  0  0  0  0  0
   13.2264   -6.9106    0.0000 O   0  0  0  0  0  0  0  0  0  0  0  0
   13.9408   -2.3731    0.0000 O   0  0  0  0  0  0  0  0  0  0  0  0
   14.6552   -3.6106    0.0000 O   0  0  0  0  0  0  0  0  0  0  0  0
   13.2264   -4.4356    0.0000 C   0  0  0  0  0  0  0  0  0  0  0  0
   13.2264   -3.6106    0.0000 C   0  0  1  0  0  0  0  0  0  0  0  0
   12.5119   -4.8481    0.0000 C   0  0  0  0  0  0  0  0  0  0  0  0
   13.9408   -4.8481    0.0000 C   0  0  0  0  0  0  0  0  0  0  0  0
   12.5119   -5.6731    0.0000 C   0  0  0  0  0  0  0  0  0  0  0  0
   13.2264   -6.0856    0.0000 C   0  0  0  0  0  0  0  0  0  0  0  0
   13.9408   -5.6731    0.0000 C   0  0  0  0  0  0  0  0  0  0  0  0
   13.9408   -3.1981    0.0000 C   0  0  0  0  0  0  0  0  0  0  0  0
   11.0829   -5.6731    0.0000 C   0  0  0  0  0  0  0  0  0  0  0  0
  1 10  1  0  0  0  0
  1 14  1  0  0  0  0
  7  2  1  6  0  0  0
  3 11  1  0  0  0  0
  4 13  1  0  0  0  0
  5 13  2  0  0  0  0
  6  7  1  0  0  0  0
  6  8  2  0  0  0  0
  6  9  1  0  0  0  0
  7 13  1  0  0  0  0
  8 10  1  0  0  0  0
  9 12  2  0  0  0  0
 10 11  2  0  0  0  0
 11 12  1  0  0  0  0
M  END
> <DATABASE_ID>
HMDB00291

> <DATABASE_NAME>
hmdb

> <SMILES>
COC1=C(O)C=CC(=C1)[C@H](O)C(O)=O

> <INCHI_IDENTIFIER>
InChI=1S/C9H10O5/c1-14-7-4-5(2-3-6(7)10)8(11)9(12)13/h2-4,8,10-11H,1H3,(H,12,13)/t8-/m0/s1

> <INCHI_KEY>
CGQCWMIAEPEHNQ-QMMMGPOBSA-N

> <FORMULA>
C9H10O5

> <MOLECULAR_WEIGHT>
198.1727

> <EXACT_MASS>
198.05282343

> <JCHEM_ACCEPTOR_COUNT>
5

> <JCHEM_AVERAGE_POLARIZABILITY>
18.451992724491205

> <JCHEM_BIOAVAILABILITY>
1

> <JCHEM_DONOR_COUNT>
3

> <JCHEM_FORMAL_CHARGE>
0

> <JCHEM_GHOSE_FILTER>
1

> <JCHEM_IUPAC>
(2S)-2-hydroxy-2-(4-hydroxy-3-methoxyphenyl)acetic acid

> <ALOGPS_LOGP>
0.94

> <JCHEM_LOGP>
0.43459905733333315

> <ALOGPS_LOGS>
-1.58

> <JCHEM_MDDR_LIKE_RULE>
0

> <JCHEM_NUMBER_OF_RINGS>
1

> <JCHEM_PHYSIOLOGICAL_CHARGE>
-1

> <JCHEM_PKA>
9.913823964089037

> <JCHEM_PKA_STRONGEST_ACIDIC>
3.113631257291667

> <JCHEM_PKA_STRONGEST_BASIC>
-4.128024057113833

> <JCHEM_POLAR_SURFACE_AREA>
86.99000000000001

> <JCHEM_REFRACTIVITY>
47.14790000000001

> <JCHEM_ROTATABLE_BOND_COUNT>
3

> <JCHEM_RULE_OF_FIVE>
1

> <ALOGPS_SOLUBILITY>
5.16e+00 g/l

> <JCHEM_TRADITIONAL_IUPAC>
(S)-hydroxy(4-hydroxy-3-methoxyphenyl)acetic acid

> <JCHEM_VEBER_RULE>
0

> <HMDB_ID>
HMDB00291

> <GENERIC_NAME>
Vanillylmandelic acid

> <SYNONYMS>
(4-Hydroxy-3-methoxyphenyl)glycolate; (4-Hydroxy-3-methoxyphenyl)glycolic acid; 3-Methoxy-4-hydroxy-mandelic acid; 3-Methoxy-4-hydroxymandelate; 3-Methoxy-4-hydroxymandelic acid; 3-Methoxy-4-hydroxyphenylhydroxyacetate; 3-Methoxy-4-hydroxyphenylhydroxyacetic acid; 4'-Hydroxy-3'-methoxymandelate; 4'-Hydroxy-3'-methoxymandelic acid; 4-Hydroxy 3-methoxymandelic acid; 4-Hydroxy-3-methoxy-DL-mandelate; 4-Hydroxy-3-methoxy-DL-mandelic acid; 4-Hydroxy-3-methoxy-Mandelate; 4-Hydroxy-3-methoxy-Mandelic acid; 4-Hydroxy-3-methoxymandelate; 4-Hydroxy-3-methoxymandelic acid; DL-3-Methoxy-4-hydroxymandelate; DL-3-Methoxy-4-hydroxymandelic acid; DL-4-Hydroxy-3-methoxymandelate; DL-4-Hydroxy-3-methoxymandelic acid; DL-vanillomandelate; DL-vanillomandelic acid; DL-vanillylmandelate; DL-vanillylmandelic acid; HMMA; Hydroxymethoxymandelic acid; Lopac-H-0131; Vainillylmandelic acid; Vanillinmandelate; Vanillinmandelic acid; Vanillomandelate; Vanillomandelic acid; Vanillyl-mandelic acid; Vanillylmandelate; Vanillylmandellic acid; Vanillymandelic acid; Vanilmandelate; Vanilmandelic acid; Vanilylmandelic acid; Vanyl-mandelic acid; Vanylmandelic acid; VMA

$$$$
