
  Mrv0541 02231219082D          

 15 15  0  0  0  0            999 V2000
   10.2645   -8.8329    0.0000 C   0  0  0  0  0  0  0  0  0  0  0  0
   13.1520   -8.1184    0.0000 C   0  0  0  0  0  0  0  0  0  0  0  0
   12.7395   -8.8329    0.0000 C   0  0  0  0  0  0  0  0  0  0  0  0
   13.1520   -6.6895    0.0000 C   0  0  0  0  0  0  0  0  0  0  0  0
   11.9145   -7.4040    0.0000 C   0  0  0  0  0  0  0  0  0  0  0  0
   12.7395   -7.4040    0.0000 C   0  0  0  0  0  0  0  0  0  0  0  0
   13.9770   -6.6895    0.0000 C   0  0  0  0  0  0  0  0  0  0  0  0
   11.9145   -8.8329    0.0000 C   0  0  0  0  0  0  0  0  0  0  0  0
   11.5020   -8.1184    0.0000 C   0  0  0  0  0  0  0  0  0  0  0  0
   14.3895   -5.9750    0.0000 C   0  0  0  0  0  0  0  0  0  0  0  0
   14.3895   -7.4040    0.0000 N   0  0  0  0  0  0  0  0  0  0  0  0
   11.5020   -9.5474    0.0000 O   0  0  0  0  0  0  0  0  0  0  0  0
   15.2145   -5.9750    0.0000 O   0  0  0  0  0  0  0  0  0  0  0  0
   13.9770   -5.2606    0.0000 O   0  0  0  0  0  0  0  0  0  0  0  0
   10.6770   -8.1184    0.0000 O   0  0  0  0  0  0  0  0  0  0  0  0
  1 15  1  0  0  0  0
  2  6  2  0  0  0  0
  2  3  1  0  0  0  0
  3  8  2  0  0  0  0
  4  6  1  0  0  0  0
  4  7  1  0  0  0  0
  5  9  2  0  0  0  0
  5  6  1  0  0  0  0
  7 11  1  0  0  0  0
  7 10  1  0  0  0  0
  8  9  1  0  0  0  0
  8 12  1  0  0  0  0
  9 15  1  0  0  0  0
 10 13  1  0  0  0  0
 10 14  2  0  0  0  0
M  END
> <DATABASE_ID>
HMDB01434

> <DATABASE_NAME>
hmdb

> <SMILES>
COC1=CC(CC(N)C(O)=O)=CC=C1O

> <INCHI_IDENTIFIER>
InChI=1S/C10H13NO4/c1-15-9-5-6(2-3-8(9)12)4-7(11)10(13)14/h2-3,5,7,12H,4,11H2,1H3,(H,13,14)

> <INCHI_KEY>
PFDUUKDQEHURQC-UHFFFAOYSA-N

> <FORMULA>
C10H13NO4

> <MOLECULAR_WEIGHT>
211.2145

> <EXACT_MASS>
211.084457909

> <JCHEM_ACCEPTOR_COUNT>
5

> <JCHEM_AVERAGE_POLARIZABILITY>
21.008178839374555

> <JCHEM_BIOAVAILABILITY>
1

> <JCHEM_DONOR_COUNT>
3

> <JCHEM_FORMAL_CHARGE>
0

> <JCHEM_GHOSE_FILTER>
0

> <JCHEM_IUPAC>
2-amino-3-(4-hydroxy-3-methoxyphenyl)propanoic acid

> <ALOGPS_LOGP>
-2.09

> <JCHEM_LOGP>
-1.6462719247074558

> <ALOGPS_LOGS>
-1.85

> <JCHEM_MDDR_LIKE_RULE>
0

> <JCHEM_NUMBER_OF_RINGS>
1

> <JCHEM_PHYSIOLOGICAL_CHARGE>
0

> <JCHEM_PKA>
10.067630231890497

> <JCHEM_PKA_STRONGEST_ACIDIC>
1.753396617582808

> <JCHEM_PKA_STRONGEST_BASIC>
9.330820827231552

> <JCHEM_POLAR_SURFACE_AREA>
92.78000000000002

> <JCHEM_REFRACTIVITY>
53.56040000000001

> <JCHEM_ROTATABLE_BOND_COUNT>
4

> <JCHEM_RULE_OF_FIVE>
1

> <ALOGPS_SOLUBILITY>
2.96e+00 g/l

> <JCHEM_TRADITIONAL_IUPAC>
3-O-methyldopa

> <JCHEM_VEBER_RULE>
0

> <HMDB_ID>
HMDB01434

> <GENERIC_NAME>
3-Methoxytyrosine

> <SYNONYMS>
3-Methoxy-tyrosine; 3-Methoxytyrosine; 3-O-Methyldopa; L-3-Methoxy tyrosine; L-3-Methoxytyrosine; L-4-Hydroxy-3-methoxyphenylalanine; Vanilalanine

$$$$
