627
  Mrv0541 02231214492D          

  9  9  0  0  0  0            999 V2000
    3.0790    1.1880    0.0000 O   0  0  0  0  0  0  0  0  0  0  0  0
    1.6500    1.1880    0.0000 O   0  0  0  0  0  0  0  0  0  0  0  0
    1.6500   -1.2870    0.0000 N   0  0  0  0  0  0  0  0  0  0  0  0
    2.3644   -0.0495    0.0000 C   0  0  0  0  0  0  0  0  0  0  0  0
    3.0790   -0.4620    0.0000 C   0  0  0  0  0  0  0  0  0  0  0  0
    1.6500   -0.4620    0.0000 C   0  0  0  0  0  0  0  0  0  0  0  0
    3.0790   -1.2870    0.0000 C   0  0  0  0  0  0  0  0  0  0  0  0
    2.3644   -1.6995    0.0000 C   0  0  0  0  0  0  0  0  0  0  0  0
    2.3644    0.7755    0.0000 C   0  0  0  0  0  0  0  0  0  0  0  0
  1  9  1  0  0  0  0
  2  9  2  0  0  0  0
  3  6  1  0  0  0  0
  3  8  2  0  0  0  0
  4  5  1  0  0  0  0
  4  6  2  0  0  0  0
  4  9  1  0  0  0  0
  5  7  2  0  0  0  0
  7  8  1  0  0  0  0
M  END
> <DATABASE_ID>
HMDB01488

> <DATABASE_NAME>
hmdb

> <SMILES>
OC(=O)C1=CN=CC=C1

> <INCHI_IDENTIFIER>
InChI=1S/C6H5NO2/c8-6(9)5-2-1-3-7-4-5/h1-4H,(H,8,9)

> <INCHI_KEY>
PVNIIMVLHYAWGP-UHFFFAOYSA-N

> <FORMULA>
C6H5NO2

> <MOLECULAR_WEIGHT>
123.1094

> <EXACT_MASS>
123.032028409

> <JCHEM_ACCEPTOR_COUNT>
3

> <JCHEM_AVERAGE_POLARIZABILITY>
11.303434426527122

> <JCHEM_BIOAVAILABILITY>
1

> <JCHEM_DONOR_COUNT>
1

> <JCHEM_FORMAL_CHARGE>
0

> <JCHEM_GHOSE_FILTER>
0

> <JCHEM_IUPAC>
pyridine-3-carboxylic acid

> <ALOGPS_LOGP>
0.29

> <JCHEM_LOGP>
-0.16644564754087304

> <ALOGPS_LOGS>
-0.17

> <JCHEM_MDDR_LIKE_RULE>
0

> <JCHEM_NUMBER_OF_RINGS>
1

> <JCHEM_PHYSIOLOGICAL_CHARGE>
-1

> <JCHEM_PKA_STRONGEST_ACIDIC>
2.785610419861248

> <JCHEM_PKA_STRONGEST_BASIC>
4.193250855836253

> <JCHEM_POLAR_SURFACE_AREA>
50.19

> <JCHEM_REFRACTIVITY>
31.157299999999996

> <JCHEM_ROTATABLE_BOND_COUNT>
1

> <JCHEM_RULE_OF_FIVE>
1

> <ALOGPS_SOLUBILITY>
8.31e+01 g/l

> <JCHEM_TRADITIONAL_IUPAC>
niacin

> <JCHEM_VEBER_RULE>
0

> <HMDB_ID>
HMDB01488

> <GENERIC_NAME>
Nicotinic acid

> <SYNONYMS>
3-Carboxylpyridine; 3-Carboxypyridine; 3-Pyridinecarboxylate; 3-Pyridinecarboxylic acid; 3-Pyridylcarboxylate; 3-Pyridylcarboxylic acid; Akotin; Apelagrin; Daskil; Efacin; Enduracin; Linic; Niac; Niacin; Niacine; Niacor; Nicacid; Nicamin; Nicangin; Nico-Span; Nicobid; Nicocap; Nicodelmine; Nicolar; Niconacid; Nicosan 3; Nicotinate; Nicotinic acid; Nicotinipca; Nicyl; Nyclin; Pellagrin; Pelonin; Slo-niacin; Wampocap

$$$$
