Untitled Document-3
  Mrv0541 02231219062D          

 65 68  0  0  0  0            999 V2000
   -3.8743   -1.4438    0.0000 C   0  0  2  0  0  0  0  0  0  0  0  0
   -4.5888   -1.0313    0.0000 C   0  0  2  0  0  0  0  0  0  0  0  0
   -4.5888   -0.2063    0.0000 C   0  0  1  0  0  0  0  0  0  0  0  0
   -3.8743    0.2062    0.0000 C   0  0  2  0  0  0  0  0  0  0  0  0
   -3.1599   -0.2063    0.0000 C   0  0  2  0  0  0  0  0  0  0  0  0
   -3.1599   -1.0313    0.0000 O   0  0  0  0  0  0  0  0  0  0  0  0
   -1.7309   -0.2063    0.0000 C   0  0  1  0  0  0  0  0  0  0  0  0
   -1.7309   -1.0313    0.0000 C   0  0  1  0  0  0  0  0  0  0  0  0
   -1.0164   -1.4438    0.0000 C   0  0  2  0  0  0  0  0  0  0  0  0
   -0.3020   -1.0313    0.0000 C   0  0  1  0  0  0  0  0  0  0  0  0
   -0.3020   -0.2062    0.0000 O   0  0  0  0  0  0  0  0  0  0  0  0
   -1.0164    0.2062    0.0000 C   0  0  2  0  0  0  0  0  0  0  0  0
    1.1270   -1.0313    0.0000 C   0  0  1  0  0  0  0  0  0  0  0  0
    1.8414   -1.4438    0.0000 C   0  0  1  0  0  0  0  0  0  0  0  0
    2.5559   -1.0313    0.0000 C   0  0  2  0  0  0  0  0  0  0  0  0
    2.5559   -0.2063    0.0000 C   0  0  2  0  0  0  0  0  0  0  0  0
    1.8414    0.2062    0.0000 O   0  0  0  0  0  0  0  0  0  0  0  0
    1.1270   -0.2063    0.0000 C   0  0  2  0  0  0  0  0  0  0  0  0
    3.9849    1.4438    0.0000 C   0  0  1  0  0  0  0  0  0  0  0  0
    3.2704    1.0313    0.0000 C   0  0  2  0  0  0  0  0  0  0  0  0
    2.5559    1.4438    0.0000 C   0  0  1  0  0  0  0  0  0  0  0  0
    2.5559    2.2687    0.0000 C   0  0  2  0  0  0  0  0  0  0  0  0
    3.2704    2.6812    0.0000 C   0  0  0  0  0  0  0  0  0  0  0  0
    3.9849    2.2687    0.0000 O   0  0  0  0  0  0  0  0  0  0  0  0
   -2.4454    0.2062    0.0000 O   0  0  0  0  0  0  0  0  0  0  0  0
   -3.8743    1.0313    0.0000 N   0  0  0  0  0  0  0  0  0  0  0  0
   -5.3033   -1.4438    0.0000 O   0  0  0  0  0  0  0  0  0  0  0  0
   -1.0164   -2.2687    0.0000 O   0  0  0  0  0  0  0  0  0  0  0  0
    0.4125   -1.4438    0.0000 O   0  0  0  0  0  0  0  0  0  0  0  0
    3.2704   -1.4438    0.0000 O   0  0  0  0  0  0  0  0  0  0  0  0
    3.2704    0.2062    0.0000 O   0  0  0  0  0  0  0  0  0  0  0  0
    4.6993    1.0312    0.0000 C   0  0  0  0  0  0  0  0  0  0  0  0
    1.8414    2.6812    0.0000 O   0  0  0  0  0  0  0  0  0  0  0  0
   -3.8743   -2.2687    0.0000 C   0  0  0  0  0  0  0  0  0  0  0  0
   -5.3033    0.2062    0.0000 O   0  0  0  0  0  0  0  0  0  0  0  0
   -2.4454   -1.4438    0.0000 O   0  0  0  0  0  0  0  0  0  0  0  0
   -1.0164    1.0313    0.0000 C   0  0  0  0  0  0  0  0  0  0  0  0
    1.8414   -2.2687    0.0000 C   0  0  0  0  0  0  0  0  0  0  0  0
    0.4125    0.2062    0.0000 O   0  0  0  0  0  0  0  0  0  0  0  0
    3.2704    3.5063    0.0000 O   0  0  0  0  0  0  0  0  0  0  0  0
    1.8414    1.0312    0.0000 O   0  0  0  0  0  0  0  0  0  0  0  0
   -4.5888   -2.6813    0.0000 O   0  0  0  0  0  0  0  0  0  0  0  0
   -4.5888   -3.5063    0.0000 S   0  0  0  0  0  0  0  0  0  0  0  0
   -5.4138   -3.5063    0.0000 O   0  0  0  0  0  0  0  0  0  0  0  0
   -4.5888   -4.3312    0.0000 O   0  0  0  0  0  0  0  0  0  0  0  0
   -3.7638   -3.5063    0.0000 O   0  0  0  0  0  0  0  0  0  0  0  0
   -4.5888    1.4438    0.0000 C   0  0  0  0  0  0  0  0  0  0  0  0
   -5.3033    1.0313    0.0000 O   0  0  0  0  0  0  0  0  0  0  0  0
   -4.5888    2.2687    0.0000 C   0  0  0  0  0  0  0  0  0  0  0  0
   -1.7309    1.4438    0.0000 O   0  0  0  0  0  0  0  0  0  0  0  0
   -0.3020    1.4438    0.0000 O   0  0  0  0  0  0  0  0  0  0  0  0
    1.1270   -2.6813    0.0000 S   0  0  0  0  0  0  0  0  0  0  0  0
    1.5395   -3.3957    0.0000 O   0  0  0  0  0  0  0  0  0  0  0  0
    0.4125   -3.0938    0.0000 O   0  0  0  0  0  0  0  0  0  0  0  0
    0.7145   -1.9668    0.0000 O   0  0  0  0  0  0  0  0  0  0  0  0
    3.9849   -1.0313    0.0000 S   0  0  0  0  0  0  0  0  0  0  0  0
    3.5724   -0.3168    0.0000 O   0  0  0  0  0  0  0  0  0  0  0  0
    4.6993   -0.6188    0.0000 O   0  0  0  0  0  0  0  0  0  0  0  0
    4.3974   -1.7457    0.0000 O   0  0  0  0  0  0  0  0  0  0  0  0
    5.4138    1.4438    0.0000 O   0  0  0  0  0  0  0  0  0  0  0  0
    4.6993    0.2062    0.0000 O   0  0  0  0  0  0  0  0  0  0  0  0
    1.8414    3.5063    0.0000 S   0  0  0  0  0  0  0  0  0  0  0  0
    1.8414    4.3312    0.0000 O   0  0  0  0  0  0  0  0  0  0  0  0
    1.0164    3.5063    0.0000 O   0  0  0  0  0  0  0  0  0  0  0  0
    2.6664    3.5063    0.0000 O   0  0  0  0  0  0  0  0  0  0  0  0
  1  2  1  0  0  0  0
  2  3  1  0  0  0  0
  3  4  1  0  0  0  0
  4  5  1  0  0  0  0
  5  6  1  0  0  0  0
  6  1  1  0  0  0  0
  7  8  1  0  0  0  0
  8  9  1  0  0  0  0
  9 10  1  0  0  0  0
 10 11  1  0  0  0  0
 11 12  1  0  0  0  0
 12  7  1  0  0  0  0
 13 14  1  0  0  0  0
 14 15  1  0  0  0  0
 15 16  1  0  0  0  0
 16 17  1  0  0  0  0
 17 18  1  0  0  0  0
 18 13  1  0  0  0  0
 19 20  1  0  0  0  0
 20 21  1  0  0  0  0
 21 22  1  0  0  0  0
 22 23  1  0  0  0  0
 23 24  1  0  0  0  0
 24 19  1  0  0  0  0
  5 25  1  1  0  0  0
  7 25  1  6  0  0  0
  4 26  1  1  0  0  0
  2 27  1  1  0  0  0
  9 28  1  6  0  0  0
 13 29  1  6  0  0  0
 15 30  1  6  0  0  0
 16 31  1  6  0  0  0
 20 31  1  1  0  0  0
 19 32  1  1  0  0  0
 22 33  1  1  0  0  0
  1 34  1  6  0  0  0
  3 35  1  6  0  0  0
  8 36  1  1  0  0  0
 12 37  1  1  0  0  0
 10 29  1  1  0  0  0
 14 38  1  1  0  0  0
 18 39  1  1  0  0  0
 23 40  1  0  0  0  0
 21 41  1  6  0  0  0
 34 42  1  0  0  0  0
 42 43  1  0  0  0  0
 43 44  2  0  0  0  0
 43 45  1  0  0  0  0
 43 46  2  0  0  0  0
 26 47  1  0  0  0  0
 47 48  2  0  0  0  0
 47 49  1  0  0  0  0
 37 50  2  0  0  0  0
 37 51  1  0  0  0  0
 38 52  1  0  0  0  0
 52 53  2  0  0  0  0
 52 54  1  0  0  0  0
 52 55  2  0  0  0  0
 30 56  1  0  0  0  0
 56 57  2  0  0  0  0
 56 58  1  0  0  0  0
 56 59  2  0  0  0  0
 32 60  2  0  0  0  0
 32 61  1  0  0  0  0
 33 62  1  0  0  0  0
 62 63  1  0  0  0  0
 62 64  2  0  0  0  0
 62 65  2  0  0  0  0
M  END
> <DATABASE_ID>
HMDB01394

> <DATABASE_NAME>
hmdb

> <SMILES>
CC(=O)N[C@@H]1[C@@H](O)[C@H](O)[C@@H](COS(O)(=O)=O)O[C@@H]1O[C@H]1[C@H](O)[C@@H](O)[C@H](O[C@@H]2[C@@H](O)O[C@H](O[C@H]3[C@H](O)[C@@H](OS(O)(=O)=O)C(O)O[C@H]3C(O)=O)[C@H](OS(O)(=O)=O)[C@H]2CS(O)(=O)=O)O[C@@H]1C(O)=O

> <INCHI_IDENTIFIER>
InChI=1S/C26H41NO34S4/c1-4(28)27-7-9(30)8(29)6(2-52-63(43,44)45)53-24(7)56-15-10(31)11(32)25(58-19(15)21(36)37)55-13-5(3-62(40,41)42)14(60-64(46,47)48)26(59-22(13)38)57-16-12(33)17(61-65(49,50)51)23(39)54-18(16)20(34)35/h5-19,22-26,29-33,38-39H,2-3H2,1H3,(H,27,28)(H,34,35)(H,36,37)(H,40,41,42)(H,43,44,45)(H,46,47,48)(H,49,50,51)/t5-,6+,7+,8+,9+,10+,11+,12-,13-,14+,15-,16-,17+,18+,19-,22-,23?,24+,25+,26-/m0/s1

> <INCHI_KEY>
ZFGMDIBRIDKWMY-PASTXAENSA-N

> <FORMULA>
C26H41NO34S4

> <MOLECULAR_WEIGHT>
1039.85

> <EXACT_MASS>
1039.039280225

> <JCHEM_ACCEPTOR_COUNT>
31

> <JCHEM_AVERAGE_POLARIZABILITY>
86.51874588207745

> <JCHEM_BIOAVAILABILITY>
0

> <JCHEM_DONOR_COUNT>
14

> <JCHEM_FORMAL_CHARGE>
0

> <JCHEM_GHOSE_FILTER>
0

> <JCHEM_IUPAC>
(2S,3S,4R,5R,6R)-6-{[(2S,3S,4S,5R,6S)-6-{[(2R,3S,4S,5R)-2-carboxy-4,6-dihydroxy-5-(sulfooxy)oxan-3-yl]oxy}-2-hydroxy-4-(sulfomethyl)-5-(sulfooxy)oxan-3-yl]oxy}-3-{[(2R,3R,4R,5S,6R)-3-acetamido-4,5-dihydroxy-6-[(sulfooxy)methyl]oxan-2-yl]oxy}-4,5-dihydroxyoxane-2-carboxylic acid

> <ALOGPS_LOGP>
-1.65

> <JCHEM_LOGP>
-14.95765862122263

> <ALOGPS_LOGS>
-1.86

> <JCHEM_MDDR_LIKE_RULE>
1

> <JCHEM_NUMBER_OF_RINGS>
4

> <JCHEM_PHYSIOLOGICAL_CHARGE>
-6

> <JCHEM_PKA>
-2.172377814551953

> <JCHEM_PKA_STRONGEST_ACIDIC>
-2.632947682418589

> <JCHEM_PKA_STRONGEST_BASIC>
-4.39319156741153

> <JCHEM_POLAR_SURFACE_AREA>
555.0900000000001

> <JCHEM_REFRACTIVITY>
182.3234000000001

> <JCHEM_ROTATABLE_BOND_COUNT>
18

> <JCHEM_RULE_OF_FIVE>
0

> <ALOGPS_SOLUBILITY>
1.44e+01 g/l

> <JCHEM_TRADITIONAL_IUPAC>
(2S,3S,4R,5R,6R)-6-{[(2S,3S,4S,5R,6S)-6-{[(2R,3S,4S,5R)-2-carboxy-4,6-dihydroxy-5-(sulfooxy)oxan-3-yl]oxy}-2-hydroxy-4-(sulfomethyl)-5-(sulfooxy)oxan-3-yl]oxy}-3-{[(2R,3R,4R,5S,6R)-3-acetamido-4,5-dihydroxy-6-[(sulfooxy)methyl]oxan-2-yl]oxy}-4,5-dihydroxyoxane-2-carboxylic acid

> <JCHEM_VEBER_RULE>
0

> <HMDB_ID>
HMDB01394

> <GENERIC_NAME>
Heparin

> <SYNONYMS>
 alpha-Heparin;  Clivarine;  Heparin Sodium; Arteven; Bemiparin; Certoparin; Clexane; Dalteparin; Enoxaparin; Eparina; Fraxiparin; Heparin; Heparin sulfate; Heparin sulphate; Heparinate; Heparinic acid; Heparinsodiumsalt; Thromboliquine

$$$$
