3-Methoxytyramine.mol
  Mrv0541 02231218182D          

 12 12  0  0  0  0            999 V2000
    2.5006   -0.8250    0.0000 N   0  0  0  0  0  0  0  0  0  0  0  0
    1.7862   -0.4125    0.0000 C   0  0  0  0  0  0  0  0  0  0  0  0
    1.0717   -0.8250    0.0000 C   0  0  0  0  0  0  0  0  0  0  0  0
    0.3572   -0.4125    0.0000 C   0  0  0  0  0  0  0  0  0  0  0  0
   -0.3572   -0.8250    0.0000 C   0  0  0  0  0  0  0  0  0  0  0  0
   -1.0717   -0.4125    0.0000 C   0  0  0  0  0  0  0  0  0  0  0  0
   -1.0717    0.4125    0.0000 C   0  0  0  0  0  0  0  0  0  0  0  0
   -1.7862    0.8250    0.0000 O   0  0  0  0  0  0  0  0  0  0  0  0
   -0.3572    0.8250    0.0000 C   0  0  0  0  0  0  0  0  0  0  0  0
    0.3572    0.4125    0.0000 C   0  0  0  0  0  0  0  0  0  0  0  0
   -1.7862   -0.8250    0.0000 O   0  0  0  0  0  0  0  0  0  0  0  0
   -2.5006   -0.4125    0.0000 C   0  0  0  0  0  0  0  0  0  0  0  0
  1  2  1  0  0  0  0
  2  3  1  0  0  0  0
  3  4  1  0  0  0  0
  4  5  2  0  0  0  0
  5  6  1  0  0  0  0
  6  7  2  0  0  0  0
  7  8  1  0  0  0  0
  7  9  1  0  0  0  0
  9 10  2  0  0  0  0
  4 10  1  0  0  0  0
 11 12  1  0  0  0  0
  6 11  1  0  0  0  0
M  END
> <DATABASE_ID>
HMDB00022

> <DATABASE_NAME>
hmdb

> <SMILES>
COC1=C(O)C=CC(CCN)=C1

> <INCHI_IDENTIFIER>
InChI=1S/C9H13NO2/c1-12-9-6-7(4-5-10)2-3-8(9)11/h2-3,6,11H,4-5,10H2,1H3

> <INCHI_KEY>
DIVQKHQLANKJQO-UHFFFAOYSA-N

> <FORMULA>
C9H13NO2

> <MOLECULAR_WEIGHT>
167.205

> <EXACT_MASS>
167.094628665

> <JCHEM_ACCEPTOR_COUNT>
3

> <JCHEM_AVERAGE_POLARIZABILITY>
18.207085549716837

> <JCHEM_BIOAVAILABILITY>
1

> <JCHEM_DONOR_COUNT>
2

> <JCHEM_FORMAL_CHARGE>
0

> <JCHEM_GHOSE_FILTER>
1

> <JCHEM_IUPAC>
4-(2-aminoethyl)-2-methoxyphenol

> <ALOGPS_LOGP>
-0.04

> <JCHEM_LOGP>
0.5270476997828332

> <ALOGPS_LOGS>
-1.49

> <JCHEM_MDDR_LIKE_RULE>
0

> <JCHEM_NUMBER_OF_RINGS>
1

> <JCHEM_PHYSIOLOGICAL_CHARGE>
1

> <JCHEM_PKA_STRONGEST_ACIDIC>
10.389796021053263

> <JCHEM_PKA_STRONGEST_BASIC>
9.642266949651177

> <JCHEM_POLAR_SURFACE_AREA>
55.480000000000004

> <JCHEM_REFRACTIVITY>
47.7305

> <JCHEM_ROTATABLE_BOND_COUNT>
3

> <JCHEM_RULE_OF_FIVE>
1

> <ALOGPS_SOLUBILITY>
5.36e+00 g/l

> <JCHEM_TRADITIONAL_IUPAC>
methoxytyramine

> <JCHEM_VEBER_RULE>
0

> <HMDB_ID>
HMDB00022

> <GENERIC_NAME>
3-Methoxytyramine

> <SYNONYMS>
3-Methoxy-4-hydroxyphenylethyl amine; 3-Methoxytyramine; 3-O-Methyldopamine; 4-(2-Amino-ethyl)-2-methoxy-phenol; 4-(2-Aminoethyl)-2-methoxy-Phenol; 4-(2-Aminoethyl)-2-methoxyphenol; 5-(2-Aminoethyl)guaiacol

$$$$
