
  Mrv0541 02231216152D          

 10  9  0  0  1  0            999 V2000
    1.7605   -1.8414    0.0000 O   0  0  0  0  0  0  0  0  0  0  0  0
    2.4750   -1.4289    0.0000 C   0  0  0  0  0  0  0  0  0  0  0  0
    3.1895   -1.8414    0.0000 C   0  0  1  0  0  0  0  0  0  0  0  0
    3.1895   -2.6664    0.0000 O   0  0  0  0  0  0  0  0  0  0  0  0
    3.9039   -1.4289    0.0000 C   0  0  0  0  0  0  0  0  0  0  0  0
    4.6184   -1.8414    0.0000 O   0  0  0  0  0  0  0  0  0  0  0  0
    5.3329   -1.4289    0.0000 P   0  0  0  0  0  0  0  0  0  0  0  0
    6.0474   -1.0164    0.0000 O   0  0  0  0  0  0  0  0  0  0  0  0
    5.7454   -2.1434    0.0000 O   0  0  0  0  0  0  0  0  0  0  0  0
    4.9204   -0.7145    0.0000 O   0  0  0  0  0  0  0  0  0  0  0  0
  1  2  1  0  0  0  0
  2  3  1  0  0  0  0
  3  4  1  6  0  0  0
  3  5  1  0  0  0  0
  5  6  1  0  0  0  0
  6  7  1  0  0  0  0
  7  8  1  0  0  0  0
  7  9  1  0  0  0  0
  7 10  2  0  0  0  0
M  END
> <DATABASE_ID>
HMDB00126

> <DATABASE_NAME>
hmdb

> <SMILES>
OC[C@@H](O)COP(O)(O)=O

> <INCHI_IDENTIFIER>
InChI=1S/C3H9O6P/c4-1-3(5)2-9-10(6,7)8/h3-5H,1-2H2,(H2,6,7,8)/t3-/m1/s1

> <INCHI_KEY>
AWUCVROLDVIAJX-GSVOUGTGSA-N

> <FORMULA>
C3H9O6P

> <MOLECULAR_WEIGHT>
172.0737

> <EXACT_MASS>
172.013674532

> <JCHEM_ACCEPTOR_COUNT>
5

> <JCHEM_AVERAGE_POLARIZABILITY>
13.581834516868785

> <JCHEM_BIOAVAILABILITY>
1

> <JCHEM_DONOR_COUNT>
4

> <JCHEM_FORMAL_CHARGE>
0

> <JCHEM_GHOSE_FILTER>
0

> <JCHEM_IUPAC>
[(2R)-2,3-dihydroxypropoxy]phosphonic acid

> <ALOGPS_LOGP>
-1.84

> <JCHEM_LOGP>
-1.9625800539999998

> <ALOGPS_LOGS>
-0.75

> <JCHEM_MDDR_LIKE_RULE>
0

> <JCHEM_NUMBER_OF_RINGS>
0

> <JCHEM_PHYSIOLOGICAL_CHARGE>
-2

> <JCHEM_PKA>
6.533552281214719

> <JCHEM_PKA_STRONGEST_ACIDIC>
1.5077547010974532

> <JCHEM_PKA_STRONGEST_BASIC>
-2.968964717967575

> <JCHEM_POLAR_SURFACE_AREA>
107.22

> <JCHEM_REFRACTIVITY>
31.389

> <JCHEM_ROTATABLE_BOND_COUNT>
4

> <JCHEM_RULE_OF_FIVE>
1

> <ALOGPS_SOLUBILITY>
3.06e+01 g/l

> <JCHEM_TRADITIONAL_IUPAC>
3-phosphoglycerol

> <JCHEM_VEBER_RULE>
0

> <HMDB_ID>
HMDB00126

> <GENERIC_NAME>
Glycerol 3-phosphate

> <SYNONYMS>
1-(Dihydrogen phosphate) Glycerol; 1-Glycerophosphate; 1-Glycerophosphorate; 1-Glycerophosphoric acid; 3-Glycerophosphate; a-Glycerophosphate; a-Glycerophosphorate; a-Glycerophosphoric acid; a-Phosphoglycerol; alpha-Glycerophosphate; alpha-Glycerophosphorate; alpha-Glycerophosphoric acid; alpha-Phosphoglycerol; Dihydrogen a-glycerophosphate; DL-a-Glycerol phosphate; DL-a-Glycerophosphate; DL-a-Glycerophosphorate; DL-a-Glycerophosphoric acid; DL-a-Glyceryl phosphate; DL-alpha-Glycerol phosphate; DL-alpha-Glycerophosphate; DL-alpha-Glycerophosphorate; DL-alpha-Glycerophosphoric acid; DL-alpha-Glyceryl phosphate; DL-Glycerol 1-phosphate; DL-Glycerol 3-phosphate; Glycerol 1-phosphate; Glycerol a-phosphate; Glycerol monophosphate; Glycerophosphate; Glycerophosphorate; Glycerophosphoric acid; Glycerophosphoric acid I; Glyceryl phosphate; Sn-glycerol 3-phosphate; Sn-Gro-1-P

$$$$
