174
  Mrv0541 02231214292D          

  9  8  0  0  1  0            999 V2000
    5.6655   -0.0784    0.0000 O   0  0  0  0  0  0  0  0  0  0  0  0
    4.9509    1.1592    0.0000 O   0  0  0  0  0  0  0  0  0  0  0  0
    2.8075   -0.9034    0.0000 O   0  0  0  0  0  0  0  0  0  0  0  0
    4.2365   -0.9034    0.0000 N   0  0  0  0  0  0  0  0  0  0  0  0
    2.0930    0.3341    0.0000 N   0  0  0  0  0  0  0  0  0  0  0  0
    4.2365   -0.0784    0.0000 C   0  0  1  0  0  0  0  0  0  0  0  0
    3.5220    0.3341    0.0000 C   0  0  0  0  0  0  0  0  0  0  0  0
    4.9509    0.3341    0.0000 C   0  0  0  0  0  0  0  0  0  0  0  0
    2.8075   -0.0784    0.0000 C   0  0  0  0  0  0  0  0  0  0  0  0
  1  8  1  0  0  0  0
  2  8  2  0  0  0  0
  3  9  2  0  0  0  0
  6  4  1  1  0  0  0
  5  9  1  0  0  0  0
  6  7  1  0  0  0  0
  6  8  1  0  0  0  0
  7  9  1  0  0  0  0
M  END
> <DATABASE_ID>
HMDB00168

> <DATABASE_NAME>
hmdb

> <SMILES>
N[C@@H](CC(N)=O)C(O)=O

> <INCHI_IDENTIFIER>
InChI=1S/C4H8N2O3/c5-2(4(8)9)1-3(6)7/h2H,1,5H2,(H2,6,7)(H,8,9)/t2-/m0/s1

> <INCHI_KEY>
DCXYFEDJOCDNAF-REOHCLBHSA-N

> <FORMULA>
C4H8N2O3

> <MOLECULAR_WEIGHT>
132.1179

> <EXACT_MASS>
132.053492132

> <JCHEM_ACCEPTOR_COUNT>
4

> <JCHEM_AVERAGE_POLARIZABILITY>
11.67708018795786

> <JCHEM_BIOAVAILABILITY>
1

> <JCHEM_DONOR_COUNT>
3

> <JCHEM_FORMAL_CHARGE>
0

> <JCHEM_GHOSE_FILTER>
0

> <JCHEM_IUPAC>
(2S)-2-amino-3-carbamoylpropanoic acid

> <ALOGPS_LOGP>
-3.36

> <JCHEM_LOGP>
-4.2878308444801645

> <ALOGPS_LOGS>
0.10

> <JCHEM_MDDR_LIKE_RULE>
0

> <JCHEM_NUMBER_OF_RINGS>
0

> <JCHEM_PHYSIOLOGICAL_CHARGE>
0

> <JCHEM_PKA>
16.090480696758792

> <JCHEM_PKA_STRONGEST_ACIDIC>
1.99854250149491

> <JCHEM_PKA_STRONGEST_BASIC>
8.43348720502326

> <JCHEM_POLAR_SURFACE_AREA>
106.41

> <JCHEM_REFRACTIVITY>
28.354899999999997

> <JCHEM_ROTATABLE_BOND_COUNT>
3

> <JCHEM_RULE_OF_FIVE>
1

> <ALOGPS_SOLUBILITY>
1.68e+02 g/l

> <JCHEM_TRADITIONAL_IUPAC>
L-asparagine

> <JCHEM_VEBER_RULE>
0

> <HMDB_ID>
HMDB00168

> <GENERIC_NAME>
L-Asparagine

> <SYNONYMS>
(-)-Asparagine; (S)-2,4-Diamino-4-oxobutanoate; (S)-2,4-Diamino-4-oxobutanoic acid; (S)-Asparagine; 2-Aminosuccinamate; 2-Aminosuccinamic acid; a-Aminosuccinamate; a-Aminosuccinamic acid; Agedoite; alpha Amminosuccinamate; alpha Amminosuccinamic acid; alpha-Aminosuccinamate; alpha-Aminosuccinamic acid; Altheine; Asn; Asparagine; Asparagine acid; Asparamide; Aspartamate; Aspartamic acid; Aspartic acid amide; Aspartic acid b-amide; Aspartic acid beta amide; B2,4-(S)-diamino-4-oxo-utanoate; B2,4-(S)-diamino-4-oxo-utanoic acid; Crystal VI; L-2,4-Diamino-4-oxobutanoate; L-2,4-Diamino-4-oxobutanoic acid; L-Asparagine; L-Aspartamine; L-b-Asparagine; L-beta-Asparagine

$$$$
