
  Mrv0541 02231218302D          

 10  9  0  0  0  0            999 V2000
   14.0172   -9.4267    0.0000 O   0  0  0  0  0  0  0  0  0  0  0  0
   14.7318   -8.1892    0.0000 O   0  0  0  0  0  0  0  0  0  0  0  0
   16.8751   -6.9517    0.0000 C   0  0  0  0  0  0  0  0  0  0  0  0
   16.8751   -7.7767    0.0000 C   0  0  0  0  0  0  0  0  0  0  0  0
   17.5897   -6.5392    0.0000 C   0  0  0  0  0  0  0  0  0  0  0  0
   16.1607   -8.1892    0.0000 C   0  0  0  0  0  0  0  0  0  0  0  0
   17.5897   -5.7142    0.0000 C   0  0  0  0  0  0  0  0  0  0  0  0
   16.1607   -9.0142    0.0000 C   0  0  0  0  0  0  0  0  0  0  0  0
   15.4462   -9.4267    0.0000 C   0  0  0  0  0  0  0  0  0  0  0  0
   14.7318   -9.0142    0.0000 C   0  0  0  0  0  0  0  0  0  0  0  0
  1 10  1  0  0  0  0
  2 10  2  0  0  0  0
  3  4  1  0  0  0  0
  3  5  1  0  0  0  0
  4  6  1  0  0  0  0
  5  7  1  0  0  0  0
  6  8  1  0  0  0  0
  8  9  2  0  0  0  0
  9 10  1  0  0  0  0
M  END
> <DATABASE_ID>
HMDB00392

> <DATABASE_NAME>
hmdb

> <SMILES>
CCCCC\C=C/C(O)=O

> <INCHI_IDENTIFIER>
InChI=1S/C8H14O2/c1-2-3-4-5-6-7-8(9)10/h6-7H,2-5H2,1H3,(H,9,10)/b7-6-

> <INCHI_KEY>
CWMPPVPFLSZGCY-SREVYHEPSA-N

> <FORMULA>
C8H14O2

> <MOLECULAR_WEIGHT>
142.1956

> <EXACT_MASS>
142.099379692

> <JCHEM_ACCEPTOR_COUNT>
2

> <JCHEM_AVERAGE_POLARIZABILITY>
16.186217553758105

> <JCHEM_BIOAVAILABILITY>
1

> <JCHEM_DONOR_COUNT>
1

> <JCHEM_FORMAL_CHARGE>
0

> <JCHEM_GHOSE_FILTER>
0

> <JCHEM_IUPAC>
(2Z)-oct-2-enoic acid

> <ALOGPS_LOGP>
3.01

> <JCHEM_LOGP>
2.6978569473333334

> <ALOGPS_LOGS>
-2.28

> <JCHEM_MDDR_LIKE_RULE>
0

> <JCHEM_NUMBER_OF_RINGS>
0

> <JCHEM_PHYSIOLOGICAL_CHARGE>
-1

> <JCHEM_PKA_STRONGEST_ACIDIC>
5.252182202336849

> <JCHEM_POLAR_SURFACE_AREA>
37.3

> <JCHEM_REFRACTIVITY>
41.368900000000004

> <JCHEM_ROTATABLE_BOND_COUNT>
5

> <JCHEM_RULE_OF_FIVE>
1

> <ALOGPS_SOLUBILITY>
7.44e-01 g/l

> <JCHEM_TRADITIONAL_IUPAC>
cis-2-octenoic acid

> <JCHEM_VEBER_RULE>
1

> <HMDB_ID>
HMDB00392

> <GENERIC_NAME>
2-Octenoic acid

> <SYNONYMS>
2-Octenic acid; 2-Octenoate; 2-Octenoic acid; 2Z-Octenoate; 2Z-Octenoic acid; Oct-2-enoate; Oct-2-enoic acid

$$$$
