5839
  Mrv0541 02231218182D          

 26 29  0  0  1  0            999 V2000
    3.9558    0.6428    0.0000 O   0  0  0  0  0  0  0  0  0  0  0  0
    5.3847    1.4678    0.0000 O   0  0  0  0  0  0  0  0  0  0  0  0
    6.5850    1.8799    0.0000 O   0  0  0  0  0  0  0  0  0  0  0  0
    1.6500   -2.2878    0.0000 O   0  0  0  0  0  0  0  0  0  0  0  0
    8.1995    2.2202    0.0000 O   0  0  0  0  0  0  0  0  0  0  0  0
    6.0991   -0.5946    0.0000 C   0  0  0  0  0  0  0  0  0  0  0  0
    5.3847   -1.0071    0.0000 C   0  0  0  0  0  0  0  0  0  0  0  0
    6.0991    0.2303    0.0000 C   0  0  2  0  0  0  0  0  0  0  0  0
    4.6702   -0.5946    0.0000 C   0  0  0  0  0  0  0  0  0  0  0  0
    3.9195   -1.0128    0.0000 C   0  0  2  0  0  0  0  0  0  0  0  0
    4.6702    0.2303    0.0000 C   0  0  2  0  0  0  0  0  0  0  0  0
    5.3847    0.6428    0.0000 C   0  0  0  0  0  0  0  0  0  0  0  0
    6.8797    0.4817    0.0000 C   0  0  2  0  0  0  0  0  0  0  0  0
    6.8797   -0.8461    0.0000 C   0  0  0  0  0  0  0  0  0  0  0  0
    5.3979   -1.8663    0.0000 C   0  0  0  0  0  0  0  0  0  0  0  0
    7.3612   -0.1822    0.0000 C   0  0  0  0  0  0  0  0  0  0  0  0
    3.9129   -1.8721    0.0000 C   0  0  0  0  0  0  0  0  0  0  0  0
    4.6571   -2.3018    0.0000 C   0  0  0  0  0  0  0  0  0  0  0  0
    3.1549   -0.5475    0.0000 C   0  0  0  0  0  0  0  0  0  0  0  0
    6.0991    1.0553    0.0000 C   0  0  0  0  0  0  0  0  0  0  0  0
    3.9258   -0.1878    0.0000 C   0  0  0  0  0  0  0  0  0  0  0  0
    7.1360    1.2658    0.0000 C   0  0  0  0  0  0  0  0  0  0  0  0
    2.3729   -0.9830    0.0000 C   0  0  0  0  0  0  0  0  0  0  0  0
    3.1412   -2.3256    0.0000 C   0  0  0  0  0  0  0  0  0  0  0  0
    2.3659   -1.8781    0.0000 C   0  0  0  0  0  0  0  0  0  0  0  0
    7.9433    1.4360    0.0000 C   0  0  0  0  0  0  0  0  0  0  0  0
 11  1  1  1  0  0  0
  2 20  2  0  0  0  0
  3 22  2  0  0  0  0
  4 25  2  0  0  0  0
  5 26  1  0  0  0  0
  6  7  1  0  0  0  0
  6  8  1  0  0  0  0
  6 14  1  0  0  0  0
  7  9  1  0  0  0  0
  7 15  1  0  0  0  0
  8 12  1  0  0  0  0
  8 13  1  0  0  0  0
  8 20  1  1  0  0  0
  9 10  1  0  0  0  0
  9 11  1  0  0  0  0
 10 17  1  0  0  0  0
 10 19  1  0  0  0  0
 10 21  1  1  0  0  0
 11 12  1  0  0  0  0
 13 16  1  0  0  0  0
 13 22  1  1  0  0  0
 14 16  1  0  0  0  0
 15 18  1  0  0  0  0
 17 18  1  0  0  0  0
 17 24  2  0  0  0  0
 19 23  1  0  0  0  0
 22 26  1  0  0  0  0
 23 25  1  0  0  0  0
 24 25  1  0  0  0  0
M  END
> <DATABASE_ID>
HMDB00037

> <DATABASE_NAME>
hmdb

> <SMILES>
C[C@]12CCC(=O)C=C1CCC1C3CC[C@H](C(=O)CO)[C@]3(C[C@H](O)C21)C=O

> <INCHI_IDENTIFIER>
InChI=1S/C21H28O5/c1-20-7-6-13(24)8-12(20)2-3-14-15-4-5-16(18(26)10-22)21(15,11-23)9-17(25)19(14)20/h8,11,14-17,19,22,25H,2-7,9-10H2,1H3/t14?,15?,16-,17+,19?,20+,21-/m1/s1

> <INCHI_KEY>
PQSUYGKTWSAVDQ-SRPWZAMTSA-N

> <FORMULA>
C21H28O5

> <MOLECULAR_WEIGHT>
360.444

> <EXACT_MASS>
360.193674006

> <JCHEM_ACCEPTOR_COUNT>
5

> <JCHEM_AVERAGE_POLARIZABILITY>
38.75793992450481

> <JCHEM_BIOAVAILABILITY>
1

> <JCHEM_DONOR_COUNT>
2

> <JCHEM_FORMAL_CHARGE>
0

> <JCHEM_GHOSE_FILTER>
1

> <JCHEM_IUPAC>
(2R,14S,15R,17S)-17-hydroxy-14-(2-hydroxyacetyl)-2-methyl-5-oxotetracyclo[8.7.0.0²,⁷.0¹¹,¹⁵]heptadec-6-ene-15-carbaldehyde

> <ALOGPS_LOGP>
1.54

> <JCHEM_LOGP>
1.0556679043333337

> <ALOGPS_LOGS>
-3.39

> <JCHEM_MDDR_LIKE_RULE>
0

> <JCHEM_NUMBER_OF_RINGS>
4

> <JCHEM_PHYSIOLOGICAL_CHARGE>
0

> <JCHEM_PKA>
14.908897015931615

> <JCHEM_PKA_STRONGEST_ACIDIC>
13.819593245483667

> <JCHEM_PKA_STRONGEST_BASIC>
-2.8521769120155946

> <JCHEM_POLAR_SURFACE_AREA>
91.67

> <JCHEM_REFRACTIVITY>
96.79179999999998

> <JCHEM_ROTATABLE_BOND_COUNT>
3

> <JCHEM_RULE_OF_FIVE>
1

> <ALOGPS_SOLUBILITY>
1.48e-01 g/l

> <JCHEM_TRADITIONAL_IUPAC>
(2R,14S,15R,17S)-17-hydroxy-14-(2-hydroxyacetyl)-2-methyl-5-oxotetracyclo[8.7.0.0²,⁷.0¹¹,¹⁵]heptadec-6-ene-15-carbaldehyde

> <JCHEM_VEBER_RULE>
0

> <HMDB_ID>
HMDB00037

> <GENERIC_NAME>
Aldosterone

> <SYNONYMS>
(+)-Aldosterone; (11b)-11,21-dihydroxy-3,20-dioxo-pregn-4-en-18-al; (11beta)-11,21-dihydroxy-3,20-dioxo-Pregn-4-en-18-al; 11,21-Dihydroxy-3,20-dioxopregn-4-en-18-al; 11-Hydroxy-17-(2-hydroxyacetyl)-10-methyl-3-oxo-1,2,6,7,8,9,10,11,12,13,14,15,16,17-tetradecahydrocyclopenta[a]phenanthrene-13-carbaldehyde; 11b,21-Dihydroxy-3,20-dioxo-pregn-4-en-18-al; 11beta,21-Dihydroxy-3,20-diketo-4-pregnen-18-al; 11beta,21-Dihydroxy-3,20-diketopregn-4-ene-18-al; 11beta,21-Dihydroxy-3,20-dioxo-pregn-4-en-18-al; 11beta,21-Dihydroxypregn-4-ene-3,18,20-trione; 18-Formyl-11beta,21-dihydroxy-4-pregnene-3,20-dione; 18-Oxocorticosterone; Aldocorten; Aldocortene; Aldocortin; Aldosterone; Aldosteronum; D-Aldosterone; delta-Aldosterone; Electrocortin; Elektrocortin; Reichstein X

$$$$
