
  Mrv0541 02231218322D          

 11 10  0  0  1  0            999 V2000
   14.5626  -11.0265    0.0000 O   0  0  0  0  0  0  0  0  0  0  0  0
   15.9915   -8.5514    0.0000 O   0  0  0  0  0  0  0  0  0  0  0  0
   15.2771   -7.3139    0.0000 O   0  0  0  0  0  0  0  0  0  0  0  0
   13.8481   -8.1389    0.0000 N   0  0  0  0  0  0  0  0  0  0  0  0
   13.1336  -11.8515    0.0000 N   0  0  0  0  0  0  0  0  0  0  0  0
   13.8481   -9.7890    0.0000 C   0  0  0  0  0  0  0  0  0  0  0  0
   14.5626   -9.3765    0.0000 C   0  0  0  0  0  0  0  0  0  0  0  0
   13.8481  -10.6140    0.0000 C   0  0  2  0  0  0  0  0  0  0  0  0
   14.5626   -8.5514    0.0000 C   0  0  1  0  0  0  0  0  0  0  0  0
   13.1336  -11.0265    0.0000 C   0  0  0  0  0  0  0  0  0  0  0  0
   15.2771   -8.1389    0.0000 C   0  0  0  0  0  0  0  0  0  0  0  0
  8  1  1  1  0  0  0
  2 11  1  0  0  0  0
  3 11  2  0  0  0  0
  9  4  1  6  0  0  0
  5 10  1  0  0  0  0
  6  7  1  0  0  0  0
  6  8  1  0  0  0  0
  7  9  1  0  0  0  0
  8 10  1  0  0  0  0
  9 11  1  0  0  0  0
M  END
> <DATABASE_ID>
HMDB00450

> <DATABASE_NAME>
hmdb

> <SMILES>
NC[C@H](O)CC[C@H](N)C(O)=O

> <INCHI_IDENTIFIER>
InChI=1S/C6H14N2O3/c7-3-4(9)1-2-5(8)6(10)11/h4-5,9H,1-3,7-8H2,(H,10,11)/t4-,5+/m1/s1

> <INCHI_KEY>
YSMODUONRAFBET-UHNVWZDZSA-N

> <FORMULA>
C6H14N2O3

> <MOLECULAR_WEIGHT>
162.187

> <EXACT_MASS>
162.100442324

> <JCHEM_ACCEPTOR_COUNT>
5

> <JCHEM_AVERAGE_POLARIZABILITY>
16.546649317611305

> <JCHEM_BIOAVAILABILITY>
1

> <JCHEM_DONOR_COUNT>
4

> <JCHEM_FORMAL_CHARGE>
0

> <JCHEM_GHOSE_FILTER>
0

> <JCHEM_IUPAC>
(2S,5R)-2,6-diamino-5-hydroxyhexanoic acid

> <ALOGPS_LOGP>
-3.77

> <JCHEM_LOGP>
-4.414212989148229

> <ALOGPS_LOGS>
-0.12

> <JCHEM_MDDR_LIKE_RULE>
0

> <JCHEM_NUMBER_OF_RINGS>
0

> <JCHEM_PHYSIOLOGICAL_CHARGE>
1

> <JCHEM_PKA>
14.903490442523363

> <JCHEM_PKA_STRONGEST_ACIDIC>
2.4473857532646233

> <JCHEM_PKA_STRONGEST_BASIC>
9.746257700424144

> <JCHEM_POLAR_SURFACE_AREA>
109.57

> <JCHEM_REFRACTIVITY>
39.17100000000001

> <JCHEM_ROTATABLE_BOND_COUNT>
5

> <JCHEM_RULE_OF_FIVE>
1

> <ALOGPS_SOLUBILITY>
1.24e+02 g/l

> <JCHEM_TRADITIONAL_IUPAC>
L-hydroxylysine

> <JCHEM_VEBER_RULE>
0

> <HMDB_ID>
HMDB00450

> <GENERIC_NAME>
5-Hydroxylysine

> <SYNONYMS>
(2S,5R)-2,6-diamino-5-hydroxyhexanoate; (2S,5R)-2,6-diamino-5-hydroxyhexanoic acid; (2S,5R)-5-hydroxylysine; (5R)-5-hydroxy-L-lysine; 5-Hydroxy-L-lysine; 5-Hydroxy-Lysine; alpha,epsilon-Diamino-delta-hydroxycaproate; alpha,epsilon-Diamino-delta-hydroxycaproic acid; D-Hydroxy-L-lysine; D-Hydroxylysine; delta-DL-hydroxylysine; delta-Hydroxy-L-lysine; delta-Hydroxylysine; Erythro-5-hydroxy-L-lysine; Hydroxy-Lysine; Hydroxylysine; L-D-Hydroxylysine; L-delta-Hydroxylysine; L-Normal-5-hydroxylysine; Procollagen 5-hydroxy-L-lysine; Procollagen L-erythro-5-hydroxy-L-lysine

$$$$
