  
  Mrv0541 02231218302D          

  8  7  0  0  0  0            999 V2000
   14.1033   -6.9211    0.0000 C   0  0  0  0  0  0  0  0  0  0  0  0
   14.1033   -7.7461    0.0000 C   0  0  0  0  0  0  0  0  0  0  0  0
   13.3889   -8.1586    0.0000 C   0  0  0  0  0  0  0  0  0  0  0  0
   12.6744   -7.7461    0.0000 C   0  0  0  0  0  0  0  0  0  0  0  0
   13.3889   -8.9836    0.0000 O   0  0  0  0  0  0  0  0  0  0  0  0
   11.9599   -8.1586    0.0000 O   0  0  0  0  0  0  0  0  0  0  0  0
   12.6744   -6.9211    0.0000 O   0  0  0  0  0  0  0  0  0  0  0  0
   14.8178   -8.1586    0.0000 C   0  0  0  0  0  0  0  0  0  0  0  0
  1  2  1  0  0  0  0
  2  3  1  0  0  0  0
  3  5  1  0  0  0  0
  3  4  1  0  0  0  0
  4  6  1  0  0  0  0
  4  7  2  0  0  0  0
  8  2  1  0  0  0  0
M  END
> <DATABASE_ID>
HMDB00407

> <DATABASE_NAME>
hmdb

> <SMILES>
CC(C)C(O)C(O)=O

> <INCHI_IDENTIFIER>
InChI=1S/C5H10O3/c1-3(2)4(6)5(7)8/h3-4,6H,1-2H3,(H,7,8)

> <INCHI_KEY>
NGEWQZIDQIYUNV-UHFFFAOYSA-N

> <FORMULA>
C5H10O3

> <MOLECULAR_WEIGHT>
118.1311

> <EXACT_MASS>
118.062994186

> <JCHEM_ACCEPTOR_COUNT>
3

> <JCHEM_AVERAGE_POLARIZABILITY>
11.76765686155458

> <JCHEM_BIOAVAILABILITY>
1

> <JCHEM_DONOR_COUNT>
2

> <JCHEM_FORMAL_CHARGE>
0

> <JCHEM_GHOSE_FILTER>
0

> <JCHEM_IUPAC>
2-hydroxy-3-methylbutanoic acid

> <ALOGPS_LOGP>
0.10

> <JCHEM_LOGP>
0.4156657033333334

> <ALOGPS_LOGS>
0.26

> <JCHEM_MDDR_LIKE_RULE>
0

> <JCHEM_NUMBER_OF_RINGS>
0

> <JCHEM_PHYSIOLOGICAL_CHARGE>
-1

> <JCHEM_PKA>
14.053181861607996

> <JCHEM_PKA_STRONGEST_ACIDIC>
4.138361788089717

> <JCHEM_PKA_STRONGEST_BASIC>
-3.8921886131871277

> <JCHEM_POLAR_SURFACE_AREA>
57.53

> <JCHEM_REFRACTIVITY>
27.8354

> <JCHEM_ROTATABLE_BOND_COUNT>
2

> <JCHEM_RULE_OF_FIVE>
1

> <ALOGPS_SOLUBILITY>
2.15e+02 g/l

> <JCHEM_TRADITIONAL_IUPAC>
2-hydroxyisovaleric acid

> <JCHEM_VEBER_RULE>
0

> <HMDB_ID>
HMDB00407

> <GENERIC_NAME>
2-Hydroxy-3-methylbutyric acid

> <SYNONYMS>
2-Hydroxy-3-methyl-Butyric acid; 2-Hydroxy-3-methylbutanoate; 2-Hydroxy-3-methylbutanoic acid; 2-Hydroxy-3-methylbutyrate; 2-Hydroxyisopentanoate; 2-Hydroxyisopentanoic acid; 2-Hydroxyisovalerate; 2-Hydroxyisovaleric acid; 2-Oxyisovalerate; 2-Oxyisovaleric acid; 3-Methyl-2-hydroxybutyrate; 3-Methyl-2-hydroxybutyric acid; A-Hydroxyisovalerate; A-Hydroxyisovaleric acid; alpha-Hydroxyisovalerate; alpha-Hydroxyisovaleric acid; DL-2-Hydroxy-3-methylbutanoate; DL-2-Hydroxy-3-methylbutanoic acid; DL-2-Hydroxyisovalerate; DL-2-Hydroxyisovaleric acid; DL-a-hydroxyisovalerate; DL-a-hydroxyisovaleric acid; DL-alpha-hydroxyisovalerate; DL-alpha-hydroxyisovaleric acid

$$$$
