L-Lactic acid.mol
  Mrv0541 02231218222D          

  6  5  0  0  0  0            999 V2000
    0.2063    0.3572    0.0000 C   0  0  0  0  0  0  0  0  0  0  0  0
   -0.2063   -0.3572    0.0000 C   0  0  2  0  0  0  0  0  0  0  0  0
    0.2063   -1.0717    0.0000 C   0  0  0  0  0  0  0  0  0  0  0  0
   -0.2063    1.0717    0.0000 O   0  0  0  0  0  0  0  0  0  0  0  0
    1.0312    0.3572    0.0000 O   0  0  0  0  0  0  0  0  0  0  0  0
   -1.0312   -0.3572    0.0000 O   0  0  0  0  0  0  0  0  0  0  0  0
  1  2  1  0  0  0  0
  2  3  1  0  0  0  0
  1  4  2  0  0  0  0
  1  5  1  0  0  0  0
  2  6  1  6  0  0  0
M  END
> <DATABASE_ID>
HMDB00190

> <DATABASE_NAME>
hmdb

> <SMILES>
C[C@H](O)C(O)=O

> <INCHI_IDENTIFIER>
InChI=1S/C3H6O3/c1-2(4)3(5)6/h2,4H,1H3,(H,5,6)/t2-/m0/s1

> <INCHI_KEY>
JVTAAEKCZFNVCJ-REOHCLBHSA-N

> <FORMULA>
C3H6O3

> <MOLECULAR_WEIGHT>
90.0779

> <EXACT_MASS>
90.031694058

> <JCHEM_ACCEPTOR_COUNT>
3

> <JCHEM_AVERAGE_POLARIZABILITY>
8.056757438397854

> <JCHEM_BIOAVAILABILITY>
1

> <JCHEM_DONOR_COUNT>
2

> <JCHEM_FORMAL_CHARGE>
0

> <JCHEM_GHOSE_FILTER>
0

> <JCHEM_IUPAC>
(2S)-2-hydroxypropanoic acid

> <ALOGPS_LOGP>
-0.79

> <JCHEM_LOGP>
-0.47182951800000017

> <ALOGPS_LOGS>
0.79

> <JCHEM_MDDR_LIKE_RULE>
0

> <JCHEM_NUMBER_OF_RINGS>
0

> <JCHEM_PHYSIOLOGICAL_CHARGE>
-1

> <JCHEM_PKA>
14.593508084825753

> <JCHEM_PKA_STRONGEST_ACIDIC>
3.784942414122652

> <JCHEM_PKA_STRONGEST_BASIC>
-3.6696493832413326

> <JCHEM_POLAR_SURFACE_AREA>
57.53

> <JCHEM_REFRACTIVITY>
18.8398

> <JCHEM_ROTATABLE_BOND_COUNT>
1

> <JCHEM_RULE_OF_FIVE>
1

> <ALOGPS_SOLUBILITY>
5.62e+02 g/l

> <JCHEM_TRADITIONAL_IUPAC>
(Î±)-lactate

> <JCHEM_VEBER_RULE>
0

> <HMDB_ID>
HMDB00190

> <GENERIC_NAME>
L-Lactic acid

> <SYNONYMS>
(+)-Lactate; (+)-Lactic acid; (alpha)-Lactate; (alpha)-Lactic acid; (S)-(+)-2-Hydroxypropanoate; (S)-(+)-2-Hydroxypropanoic acid; (S)-2-hydroxy-Propanoate; (S)-2-hydroxy-Propanoic acid; (S)-2-Hydroxypropanoate; (S)-2-Hydroxypropanoic acid; (S)-2-Hydroxypropionate; (S)-2-Hydroxypropionic acid; (S)-Lactate; (S)-Lactic acid; 1-Hydroxyethane 1-carboxylate; 1-Hydroxyethane 1-carboxylic acid; 1-Hydroxyethanecarboxylate; 1-Hydroxyethanecarboxylic acid; 2-Hydroxypropanoate; 2-Hydroxypropanoic acid; 2-Hydroxypropionate; a-Hydroxypropanoate; a-Hydroxypropanoic acid; a-Hydroxypropionate; a-Hydroxypropionic acid; alpha-Hydroxypropanoate; alpha-Hydroxypropanoic acid; alpha-Hydroxypropionate; alpha-Hydroxypropionic acid; L-(+)- Lactic acid; L-2-Hydroxypropanoate; L-2-Hydroxypropanoic acid; Lactate; Lactic acid; Milk acid; Sarcolactic acid

$$$$
