
  Mrv0541 02231219112D          

 13 12  0  0  0  0            999 V2000
   13.9638  -15.9914    0.0000 P   0  0  0  0  0  0  0  0  0  0  0  0
   14.6783  -16.4039    0.0000 N   0  0  0  0  0  0  0  0  0  0  0  0
   15.3928  -15.9914    0.0000 C   0  0  0  0  0  0  0  0  0  0  0  0
   15.3928  -15.1664    0.0000 N   0  0  0  0  0  0  0  0  0  0  0  0
   16.1072  -16.4039    0.0000 N   0  0  0  0  0  0  0  0  0  0  0  0
   16.8217  -15.9914    0.0000 C   0  0  0  0  0  0  0  0  0  0  0  0
   17.5362  -16.4039    0.0000 C   0  0  0  0  0  0  0  0  0  0  0  0
   18.2507  -15.9914    0.0000 O   0  0  0  0  0  0  0  0  0  0  0  0
   13.2494  -16.4039    0.0000 O   0  0  0  0  0  0  0  0  0  0  0  0
   13.9638  -15.1664    0.0000 O   0  0  0  0  0  0  0  0  0  0  0  0
   14.6783  -15.5789    0.0000 O   0  0  0  0  0  0  0  0  0  0  0  0
   16.1072  -17.2289    0.0000 C   0  0  0  0  0  0  0  0  0  0  0  0
   17.5362  -17.2289    0.0000 O   0  0  0  0  0  0  0  0  0  0  0  0
  1  2  1  0  0  0  0
  2  3  1  0  0  0  0
  3  4  2  0  0  0  0
  3  5  1  0  0  0  0
  5  6  1  0  0  0  0
  6  7  1  0  0  0  0
  7  8  1  0  0  0  0
  1  9  1  0  0  0  0
  1 10  1  0  0  0  0
  1 11  2  0  0  0  0
  5 12  1  0  0  0  0
  7 13  2  0  0  0  0
M  END
> <DATABASE_ID>
HMDB01511

> <DATABASE_NAME>
hmdb

> <SMILES>
CN(CC(O)=O)C(=N)NP(O)(O)=O

> <INCHI_IDENTIFIER>
InChI=1S/C4H10N3O5P/c1-7(2-3(8)9)4(5)6-13(10,11)12/h2H2,1H3,(H,8,9)(H4,5,6,10,11,12)

> <INCHI_KEY>
DRBBFCLWYRJSJZ-UHFFFAOYSA-N

> <FORMULA>
C4H10N3O5P

> <MOLECULAR_WEIGHT>
211.1131

> <EXACT_MASS>
211.035806957

> <JCHEM_ACCEPTOR_COUNT>
7

> <JCHEM_AVERAGE_POLARIZABILITY>
16.816667009443947

> <JCHEM_BIOAVAILABILITY>
1

> <JCHEM_DONOR_COUNT>
5

> <JCHEM_FORMAL_CHARGE>
0

> <JCHEM_GHOSE_FILTER>
0

> <JCHEM_IUPAC>
2-(3-methyl-1-phosphonocarbamimidamido)acetic acid

> <ALOGPS_LOGP>
-2.01

> <JCHEM_LOGP>
-2.250537284459533

> <ALOGPS_LOGS>
-1.78

> <JCHEM_MDDR_LIKE_RULE>
0

> <JCHEM_NUMBER_OF_RINGS>
0

> <JCHEM_PHYSIOLOGICAL_CHARGE>
-2

> <JCHEM_PKA>
3.1965266977737437

> <JCHEM_PKA_STRONGEST_ACIDIC>
-1.0991335495563819

> <JCHEM_PKA_STRONGEST_BASIC>
11.57236545345682

> <JCHEM_POLAR_SURFACE_AREA>
133.95000000000002

> <JCHEM_REFRACTIVITY>
53.17790000000001

> <JCHEM_ROTATABLE_BOND_COUNT>
3

> <JCHEM_RULE_OF_FIVE>
1

> <ALOGPS_SOLUBILITY>
3.52e+00 g/l

> <JCHEM_TRADITIONAL_IUPAC>
creatine-phosphate

> <JCHEM_VEBER_RULE>
0

> <HMDB_ID>
HMDB01511

> <GENERIC_NAME>
Phosphocreatine

> <SYNONYMS>
Creatine phosphate; Creatine-P; Creatine-phosphate; Creatinephosphoric acid; N-(Phosphonoamidino)-Sarcosine; N-(Phosphonoamidino)sarcosine; N-Phosphocreatine; N-Phosphorocreatine; N-Phosphorylcreatine; N-[Imino(phosphonoamino)methyl]-N-methyl-Glycine; Neo-ton; P-Creatine; Phosphocreatine; Phosphorylcreatine

$$$$
