
  Mrv0541 02231218502D          

 24 23  0  0  0  0            999 V2000
   -1.8512   -0.2619    0.0000 C   0  0  0  0  0  0  0  0  0  0  0  0
   -1.1498    0.1509    0.0000 C   0  0  0  0  0  0  0  0  0  0  0  0
   -2.5660    0.1420    0.0000 C   0  0  0  0  0  0  0  0  0  0  0  0
   -0.4218   -0.2442    0.0000 C   0  0  0  0  0  0  0  0  0  0  0  0
   -3.2720   -0.2841    0.0000 C   0  0  0  0  0  0  0  0  0  0  0  0
    0.3108    0.1687    0.0000 C   0  0  0  0  0  0  0  0  0  0  0  0
   -4.0089    0.1244    0.0000 C   0  0  0  0  0  0  0  0  0  0  0  0
    1.0122   -0.2220    0.0000 C   0  0  0  0  0  0  0  0  0  0  0  0
   -4.7237   -0.2930    0.0000 C   0  0  0  0  0  0  0  0  0  0  0  0
    1.7314    0.1820    0.0000 C   0  0  0  0  0  0  0  0  0  0  0  0
   -5.4384    0.1155    0.0000 C   0  0  0  0  0  0  0  0  0  0  0  0
    2.4551   -0.2176    0.0000 C   0  0  0  0  0  0  0  0  0  0  0  0
   -6.1532   -0.3197    0.0000 C   0  0  0  0  0  0  0  0  0  0  0  0
    3.1610    0.2176    0.0000 C   0  0  0  0  0  0  0  0  0  0  0  0
   -6.8858    0.0932    0.0000 C   0  0  0  0  0  0  0  0  0  0  0  0
    3.8757   -0.1864    0.0000 C   0  0  0  0  0  0  0  0  0  0  0  0
   -7.6049   -0.3418    0.0000 O   0  0  0  0  0  0  0  0  0  0  0  0
   -6.8724    0.8835    0.0000 O   0  0  0  0  0  0  0  0  0  0  0  0
    4.6082    0.2397    0.0000 C   0  0  0  0  0  0  0  0  0  0  0  0
    5.3185   -0.1643    0.0000 C   0  0  0  0  0  0  0  0  0  0  0  0
    6.0333    0.2442    0.0000 C   0  0  0  0  0  0  0  0  0  0  0  0
    6.7525   -0.1509    0.0000 C   0  0  0  0  0  0  0  0  0  0  0  0
    7.4806    0.2664    0.0000 C   0  0  0  0  0  0  0  0  0  0  0  0
    8.1999   -0.1376    0.0000 C   0  0  0  0  0  0  0  0  0  0  0  0
  1  2  1  0  0  0  0
  1  3  1  0  0  0  0
  2  4  1  0  0  0  0
  3  5  1  0  0  0  0
  4  6  1  0  0  0  0
  5  7  1  0  0  0  0
  6  8  1  0  0  0  0
  7  9  1  0  0  0  0
  8 10  1  0  0  0  0
  9 11  1  0  0  0  0
 10 12  1  0  0  0  0
 11 13  1  0  0  0  0
 12 14  1  0  0  0  0
 13 15  1  0  0  0  0
 14 16  1  0  0  0  0
 15 17  1  0  0  0  0
 15 18  2  0  0  0  0
 16 19  1  0  0  0  0
 19 20  1  0  0  0  0
 20 21  1  0  0  0  0
 21 22  1  0  0  0  0
 22 23  1  0  0  0  0
 23 24  1  0  0  0  0
M  END
> <DATABASE_ID>
HMDB00944

> <DATABASE_NAME>
hmdb

> <SMILES>
CCCCCCCCCCCCCCCCCCCCCC(O)=O

> <INCHI_IDENTIFIER>
InChI=1S/C22H44O2/c1-2-3-4-5-6-7-8-9-10-11-12-13-14-15-16-17-18-19-20-21-22(23)24/h2-21H2,1H3,(H,23,24)

> <INCHI_KEY>
UKMSUNONTOPOIO-UHFFFAOYSA-N

> <FORMULA>
C22H44O2

> <MOLECULAR_WEIGHT>
340.5836

> <EXACT_MASS>
340.334130652

> <JCHEM_ACCEPTOR_COUNT>
2

> <JCHEM_AVERAGE_POLARIZABILITY>
47.24982691679736

> <JCHEM_BIOAVAILABILITY>
0

> <JCHEM_DONOR_COUNT>
1

> <JCHEM_FORMAL_CHARGE>
0

> <JCHEM_GHOSE_FILTER>
0

> <JCHEM_IUPAC>
docosanoic acid

> <ALOGPS_LOGP>
9.19

> <JCHEM_LOGP>
8.923994767666667

> <ALOGPS_LOGS>
-7.05

> <JCHEM_MDDR_LIKE_RULE>
0

> <JCHEM_NUMBER_OF_RINGS>
0

> <JCHEM_PHYSIOLOGICAL_CHARGE>
-1

> <JCHEM_PKA_STRONGEST_ACIDIC>
4.952019655228562

> <JCHEM_POLAR_SURFACE_AREA>
37.3

> <JCHEM_REFRACTIVITY>
104.68959999999998

> <JCHEM_ROTATABLE_BOND_COUNT>
20

> <JCHEM_RULE_OF_FIVE>
0

> <ALOGPS_SOLUBILITY>
3.04e-05 g/l

> <JCHEM_TRADITIONAL_IUPAC>
behenic acid

> <JCHEM_VEBER_RULE>
0

> <HMDB_ID>
HMDB00944

> <GENERIC_NAME>
Behenic acid

> <SYNONYMS>
1-Docosanoate; 1-Docosanoic acid; B 95; Behenate; Behenic acid; Edenor C 22-85R; EXL 5; Glycon B 70; Hydrofol 2022-55; Hydrofol acid 560; N-Docosanoate; N-Docosanoic acid; Prifac 2987

$$$$
