
  Mrv0541 02231219382D          

 13 14  0  0  0  0            999 V2000
   24.7334  -18.4747    0.0000 O   0  0  0  0  0  0  0  0  0  0  0  0
   28.9640  -17.6497    0.0000 O   0  0  0  0  0  0  0  0  0  0  0  0
   26.1625  -15.9996    0.0000 O   0  0  0  0  0  0  0  0  0  0  0  0
   25.4479  -17.2371    0.0000 N   0  0  0  0  0  0  0  0  0  0  0  0
   26.1625  -18.4747    0.0000 N   0  0  0  0  0  0  0  0  0  0  0  0
   27.6575  -18.3135    0.0000 N   0  0  0  0  0  0  0  0  0  0  0  0
   27.6575  -16.9858    0.0000 N   0  0  0  0  0  0  0  0  0  0  0  0
   24.7334  -16.8246    0.0000 C   0  0  0  0  0  0  0  0  0  0  0  0
   25.4479  -18.0622    0.0000 C   0  0  0  0  0  0  0  0  0  0  0  0
   28.1390  -17.6497    0.0000 C   0  0  0  0  0  0  0  0  0  0  0  0
   26.1625  -16.8246    0.0000 C   0  0  0  0  0  0  0  0  0  0  0  0
   26.8769  -18.0622    0.0000 C   0  0  0  0  0  0  0  0  0  0  0  0
   26.8769  -17.2371    0.0000 C   0  0  0  0  0  0  0  0  0  0  0  0
  1  9  2  0  0  0  0
  2 10  2  0  0  0  0
  3 11  2  0  0  0  0
  4  8  1  0  0  0  0
  4  9  1  0  0  0  0
  4 11  1  0  0  0  0
  5  9  1  0  0  0  0
  5 12  1  0  0  0  0
  6 10  1  0  0  0  0
  6 12  1  0  0  0  0
  7 10  1  0  0  0  0
  7 13  1  0  0  0  0
 11 13  1  0  0  0  0
 12 13  2  0  0  0  0
M  END
> <DATABASE_ID>
HMDB03099

> <DATABASE_NAME>
hmdb

> <SMILES>
CN1C(=O)NC2=C(NC(=O)N2)C1=O

> <INCHI_IDENTIFIER>
InChI=1S/C6H6N4O3/c1-10-4(11)2-3(9-6(10)13)8-5(12)7-2/h1H3,(H,9,13)(H2,7,8,12)

> <INCHI_KEY>
QFDRTQONISXGJA-UHFFFAOYSA-N

> <FORMULA>
C6H6N4O3

> <MOLECULAR_WEIGHT>
182.1368

> <EXACT_MASS>
182.043990078

> <JCHEM_ACCEPTOR_COUNT>
3

> <JCHEM_AVERAGE_POLARIZABILITY>
15.725862137209967

> <JCHEM_BIOAVAILABILITY>
1

> <JCHEM_DONOR_COUNT>
3

> <JCHEM_FORMAL_CHARGE>
0

> <JCHEM_GHOSE_FILTER>
0

> <JCHEM_IUPAC>
1-methyl-2,3,6,7,8,9-hexahydro-1H-purine-2,6,8-trione

> <ALOGPS_LOGP>
-1.15

> <JCHEM_LOGP>
-1.32051687

> <ALOGPS_LOGS>
-1.75

> <JCHEM_MDDR_LIKE_RULE>
0

> <JCHEM_NUMBER_OF_RINGS>
2

> <JCHEM_PHYSIOLOGICAL_CHARGE>
0

> <JCHEM_PKA>
9.880095047769107

> <JCHEM_PKA_STRONGEST_ACIDIC>
7.671819121930137

> <JCHEM_PKA_STRONGEST_BASIC>
-6.168799154143619

> <JCHEM_POLAR_SURFACE_AREA>
90.54

> <JCHEM_REFRACTIVITY>
50.5253

> <JCHEM_ROTATABLE_BOND_COUNT>
0

> <JCHEM_RULE_OF_FIVE>
1

> <ALOGPS_SOLUBILITY>
3.23e+00 g/l

> <JCHEM_TRADITIONAL_IUPAC>
1-methyluric acid

> <JCHEM_VEBER_RULE>
0

> <HMDB_ID>
HMDB03099

> <GENERIC_NAME>
1-Methyluric acid

> <SYNONYMS>
1-Methylurate

$$$$
