
  Mrv0541 02231218412D          

 39 40  0  0  1  0            999 V2000
   13.1932   -3.5615    0.0000 C   0  0  0  0  0  0  0  0  0  0  0  0
   13.6057   -4.2760    0.0000 C   0  0  1  0  0  0  0  0  0  0  0  0
   14.4307   -5.7048    0.0000 C   0  0  1  0  0  0  0  0  0  0  0  0
   13.6057   -5.7048    0.0000 C   0  0  1  0  0  0  0  0  0  0  0  0
   10.7183   -6.4193    0.0000 C   0  0  2  0  0  0  0  0  0  0  0  0
   13.1932   -4.9904    0.0000 C   0  0  1  0  0  0  0  0  0  0  0  0
   11.1308   -7.1338    0.0000 C   0  0  2  0  0  0  0  0  0  0  0  0
   11.1308   -5.7048    0.0000 C   0  0  1  0  0  0  0  0  0  0  0  0
   11.9558   -7.1338    0.0000 C   0  0  1  0  0  0  0  0  0  0  0  0
   12.3682   -7.8482    0.0000 C   0  0  0  0  0  0  0  0  0  0  0  0
   14.8432   -4.9904    0.0000 C   0  0  2  0  0  0  0  0  0  0  0  0
   11.9558   -5.7048    0.0000 C   0  0  2  0  0  0  0  0  0  0  0  0
   14.8432   -6.4193    0.0000 N   0  0  0  0  0  0  0  0  0  0  0  0
   13.1932   -6.4193    0.0000 O   0  5  0  0  0  0  0  0  0  0  0  0
    9.8933   -6.4193    0.0000 O   0  0  0  0  0  0  0  0  0  0  0  0
   13.1932   -7.8482    0.0000 O   0  5  0  0  0  0  0  0  0  0  0  0
   11.9558   -8.5626    0.0000 O   0  0  0  0  0  0  0  0  0  0  0  0
   11.2413   -3.2596    0.0000 O   0  0  0  0  0  0  0  0  0  0  0  0
   12.6703   -2.4346    0.0000 O   0  0  0  0  0  0  0  0  0  0  0  0
   11.5433   -2.1326    0.0000 O   0  0  0  0  0  0  0  0  0  0  0  0
    9.8933   -5.8154    0.0000 O   0  0  0  0  0  0  0  0  0  0  0  0
    9.8933   -4.1655    0.0000 O   0  0  0  0  0  0  0  0  0  0  0  0
    9.0683   -4.9904    0.0000 O   0  0  0  0  0  0  0  0  0  0  0  0
   16.7952   -6.7213    0.0000 O   0  0  0  0  0  0  0  0  0  0  0  0
   15.3662   -7.5463    0.0000 O   0  0  0  0  0  0  0  0  0  0  0  0
   16.4931   -7.8482    0.0000 O   0  0  0  0  0  0  0  0  0  0  0  0
   10.7183   -7.8482    0.0000 O   0  0  0  0  0  0  0  0  0  0  0  0
   15.6682   -4.9904    0.0000 O   0  0  0  0  0  0  0  0  0  0  0  0
   12.3682   -3.5615    0.0000 O   0  0  0  0  0  0  0  0  0  0  0  0
   14.4307   -4.2760    0.0000 O   0  0  0  0  0  0  0  0  0  0  0  0
   12.3682   -4.9904    0.0000 O   0  0  0  0  0  0  0  0  0  0  0  0
   12.3682   -6.4193    0.0000 O   0  0  0  0  0  0  0  0  0  0  0  0
   10.7183   -4.9904    0.0000 O   0  0  0  0  0  0  0  0  0  0  0  0
   15.6682   -6.4193    0.0000 O   0  0  0  0  0  0  0  0  0  0  0  0
   11.9558   -2.8471    0.0000 S   0  0  0  0  0  0  0  0  0  0  0  0
    9.8933   -4.9904    0.0000 S   0  0  0  0  0  0  0  0  0  0  0  0
   16.0807   -7.1338    0.0000 S   0  0  0  0  0  0  0  0  0  0  0  0
   16.0807   -4.2760    0.0000 C   0  0  0  0  0  0  0  0  0  0  0  0
   11.1308   -8.5626    0.0000 C   0  0  0  0  0  0  0  0  0  0  0  0
  2  1  1  6  0  0  0
  1 29  1  0  0  0  0
  2  6  1  0  0  0  0
  2 30  1  0  0  0  0
  3 11  1  0  0  0  0
  3  4  1  0  0  0  0
  3 13  1  1  0  0  0
  4  6  1  0  0  0  0
  4 14  1  6  0  0  0
  5  7  1  0  0  0  0
  5 15  1  1  0  0  0
  5  8  1  0  0  0  0
  6 31  1  1  0  0  0
  7 27  1  6  0  0  0
  7  9  1  0  0  0  0
  8 33  1  6  0  0  0
  8 12  1  0  0  0  0
  9 32  1  0  0  0  0
  9 10  1  6  0  0  0
 10 16  1  0  0  0  0
 10 17  2  0  0  0  0
 11 30  1  0  0  0  0
 11 28  1  1  0  0  0
 12 32  1  0  0  0  0
 12 31  1  6  0  0  0
 13 34  1  0  0  0  0
 18 35  1  0  0  0  0
 19 35  2  0  0  0  0
 20 35  2  0  0  0  0
 21 36  1  0  0  0  0
 22 36  2  0  0  0  0
 23 36  2  0  0  0  0
 24 37  2  0  0  0  0
 25 37  2  0  0  0  0
 26 37  1  0  0  0  0
 29 35  1  0  0  0  0
 33 36  1  0  0  0  0
 34 37  1  0  0  0  0
 28 38  1  0  0  0  0
 27 39  1  0  0  0  0
M  CHG  2  14  -1  16  -1
M  STY  1   1 GEN
M  SCN  1   1 HT 
M  SAL   1 15   1   2   3   4   5   6   7   8   9  10  11  12  13  14  15
M  SAL   1 15  16  17  18  19  20  21  22  23  24  25  26  27  28  29  30
M  SAL   1  9  31  32  33  34  35  36  37  38  39
M  SDI   1  4    8.1152   -8.8944    8.1152   -1.9026
M  SDI   1  4   17.2312   -1.9026   17.2312   -8.8944
M  END
> <DATABASE_ID>
HMDB00693

> <DATABASE_NAME>
hmdb

> <INCHI_IDENTIFIER>
InChI=1S/C14H24NO21S3/c1-29-9-7(17)10(35-38(23,24)25)14(34-11(9)12(18)19)33-8-4(3-31-37(20,21)22)32-13(30-2)5(6(8)16)15-36-39(26,27)28/h4-11,13-15,17H,3H2,1-2H3,(H,18,19)(H,20,21,22)(H,23,24,25)(H,26,27,28)/q-1/p-1/t4-,5-,6-,7+,8-,9+,10-,11-,13+,14+/m0/s1

> <INCHI_KEY>
WKPUACLQLIIVJJ-RHKLHVFKSA-M

> <FORMULA>
C14H23NO21S3

> <MOLECULAR_WEIGHT>
637.522

> <EXACT_MASS>
636.992468873

> <JCHEM_ACCEPTOR_COUNT>
19

> <JCHEM_AVERAGE_POLARIZABILITY>
52.508174020771506

> <JCHEM_DONOR_COUNT>
5

> <JCHEM_FORMAL_CHARGE>
-2

> <JCHEM_IUPAC>
(2S,3R,4R,5S,6R)-4-hydroxy-3-methoxy-6-{[(2S,3R,4S,5S,6R)-6-methoxy-4-oxido-5-[(sulfooxy)amino]-2-[(sulfooxy)methyl]oxan-3-yl]oxy}-5-(sulfooxy)oxane-2-carboxylate

> <JCHEM_LOGP>
-8.12290777905686

> <JCHEM_PKA>
-2.3327485898693743

> <JCHEM_POLAR_SURFACE_AREA>
332.4000000000001

> <JCHEM_REFRACTIVITY>
142.98419999999996

> <JCHEM_ROTATABLE_BOND_COUNT>
13

> <JCHEM_TRADITIONAL_IUPAC>
(2S,3R,4R,5S,6R)-4-hydroxy-3-methoxy-6-{[(2S,3R,4S,5S,6R)-6-methoxy-4-oxido-5-[(sulfooxy)amino]-2-[(sulfooxy)methyl]oxan-3-yl]oxy}-5-(sulfooxy)oxane-2-carboxylate

> <HMDB_ID>
HMDB00693

> <GENERIC_NAME>
Heparan sulfate

> <SYNONYMS>
alpha-Idosane; Heparan N-sulfate; Heparan N-sulphate; Heparan sulfate; Heparan sulphate; Heparatan sulfate; Heparatan sulphate; Heparitin; Heparitin monosulfate; Heparitin monosulphate; Heparitin sulfate; Heparitin sulphate; HHS 5; N-Acetylheparan sulfate; N-Acetylheparan sulphate; Suleparoid; Tavidan

$$$$
