
  Mrv0541 03091311122D          

 15 14  0  0  1  0            999 V2000
   16.4584   -4.2762    0.0000 N   0  0  0  0  0  0  0  0  0  0  0  0
   15.7441   -3.8637    0.0000 C   0  0  0  0  0  0  0  0  0  0  0  0
   15.0296   -4.2762    0.0000 C   0  0  0  0  0  0  0  0  0  0  0  0
   13.6007   -4.2762    0.0000 C   0  0  0  0  0  0  0  0  0  0  0  0
   14.3151   -3.8637    0.0000 C   0  0  0  0  0  0  0  0  0  0  0  0
   15.0296   -5.1012    0.0000 O   0  0  0  0  0  0  0  0  0  0  0  0
   15.7441   -3.0388    0.0000 O   0  0  0  0  0  0  0  0  0  0  0  0
   12.8862   -3.8637    0.0000 O   0  0  0  0  0  0  0  0  0  0  0  0
   17.1729   -3.8637    0.0000 C   0  0  0  0  0  0  0  0  0  0  0  0
   17.8874   -4.2762    0.0000 C   0  0  0  0  0  0  0  0  0  0  0  0
   18.6019   -3.8637    0.0000 C   0  0  0  0  0  0  0  0  0  0  0  0
   18.6019   -3.0388    0.0000 O   0  0  0  0  0  0  0  0  0  0  0  0
   19.3163   -4.2762    0.0000 O   0  0  0  0  0  0  0  0  0  0  0  0
   13.9026   -3.1493    0.0000 C   0  0  0  0  0  0  0  0  0  0  0  0
   14.7276   -3.1493    0.0000 C   0  0  0  0  0  0  0  0  0  0  0  0
  1  9  1  0  0  0  0
  2  1  1  0  0  0  0
  2  7  2  0  0  0  0
  3  2  1  0  0  0  0
  3  6  1  0  0  0  0
  4  8  1  0  0  0  0
  3  5  1  0  0  0  0
  5  4  1  0  0  0  0
  5 14  1  0  0  0  0
  5 15  1  0  0  0  0
  9 10  1  0  0  0  0
 10 11  1  0  0  0  0
 11 12  2  0  0  0  0
 11 13  1  0  0  0  0
M  END
> <DATABASE_ID>
HMDB00210

> <DATABASE_NAME>
hmdb

> <SMILES>
CC(C)(CO)C(O)C(=O)NCCC(O)=O

> <INCHI_IDENTIFIER>
InChI=1S/C9H17NO5/c1-9(2,5-11)7(14)8(15)10-4-3-6(12)13/h7,11,14H,3-5H2,1-2H3,(H,10,15)(H,12,13)

> <INCHI_KEY>
GHOKWGTUZJEAQD-UHFFFAOYSA-N

> <FORMULA>
C9H17NO5

> <MOLECULAR_WEIGHT>
219.235

> <EXACT_MASS>
219.110672659

> <JCHEM_ACCEPTOR_COUNT>
5

> <JCHEM_AVERAGE_POLARIZABILITY>
21.915355629120093

> <JCHEM_BIOAVAILABILITY>
1

> <JCHEM_DONOR_COUNT>
4

> <JCHEM_FORMAL_CHARGE>
0

> <JCHEM_GHOSE_FILTER>
0

> <JCHEM_IUPAC>
3-(2,4-dihydroxy-3,3-dimethylbutanamido)propanoic acid

> <ALOGPS_LOGP>
-1.12

> <JCHEM_LOGP>
-1.3553751066666662

> <ALOGPS_LOGS>
-0.56

> <JCHEM_MDDR_LIKE_RULE>
0

> <JCHEM_NUMBER_OF_RINGS>
0

> <JCHEM_PHYSIOLOGICAL_CHARGE>
-1

> <JCHEM_PKA>
12.685728183953426

> <JCHEM_PKA_STRONGEST_ACIDIC>
4.3547414254714205

> <JCHEM_PKA_STRONGEST_BASIC>
-2.7860052632571373

> <JCHEM_POLAR_SURFACE_AREA>
106.86

> <JCHEM_REFRACTIVITY>
51.5111

> <JCHEM_ROTATABLE_BOND_COUNT>
6

> <JCHEM_RULE_OF_FIVE>
1

> <ALOGPS_SOLUBILITY>
6.05e+01 g/l

> <JCHEM_TRADITIONAL_IUPAC>
DL-pantothenic acid

> <JCHEM_VEBER_RULE>
0

> <HMDB_ID>
HMDB00210

> <GENERIC_NAME>
Pantothenic acid

> <SYNONYMS>
(+)-Pantothenate; (+)-Pantothenic acid; (D)-(+)-Pantothenate; (D)-(+)-Pantothenic acid; (R)-pantothenate; Chick antidermatitis factor; D(+)-N-(2,4-Dihydroxy-3,3-dimethylbutyryl)-b-alanine; D(+)-N-(2,4-Dihydroxy-3,3-dimethylbutyryl)-beta-alanine; D-Pantothenate; D-Pantothenic acid; delta-Pantothenate; delta-Pantothenic acid; Pantothenate; Vitamin B5

$$$$
