Untitled Document-3
  Mrv0541 02231219132D          

  9  8  0  0  0  0            999 V2000
   -1.4289    0.2062    0.0000 C   0  0  0  0  0  0  0  0  0  0  0  0
   -0.7145   -0.2062    0.0000 C   0  0  2  0  0  0  0  0  0  0  0  0
    0.0000    0.2062    0.0000 C   0  0  0  0  0  0  0  0  0  0  0  0
    0.7145   -0.2062    0.0000 C   0  0  0  0  0  0  0  0  0  0  0  0
    1.4289    0.2062    0.0000 C   0  0  0  0  0  0  0  0  0  0  0  0
    2.1434   -0.2062    0.0000 C   0  0  0  0  0  0  0  0  0  0  0  0
   -1.4289    1.0313    0.0000 O   0  0  0  0  0  0  0  0  0  0  0  0
   -2.1434   -0.2062    0.0000 O   0  0  0  0  0  0  0  0  0  0  0  0
   -0.7145   -1.0313    0.0000 N   0  0  0  0  0  0  0  0  0  0  0  0
  1  2  1  0  0  0  0
  2  3  1  0  0  0  0
  3  4  1  0  0  0  0
  4  5  1  0  0  0  0
  5  6  1  0  0  0  0
  1  7  2  0  0  0  0
  1  8  1  0  0  0  0
  2  9  1  6  0  0  0
M  END
> <DATABASE_ID>
HMDB01645

> <DATABASE_NAME>
hmdb

> <SMILES>
CCCC[C@H](N)C(O)=O

> <INCHI_IDENTIFIER>
InChI=1S/C6H13NO2/c1-2-3-4-5(7)6(8)9/h5H,2-4,7H2,1H3,(H,8,9)/t5-/m0/s1

> <INCHI_KEY>
LRQKBLKVPFOOQJ-YFKPBYRVSA-N

> <FORMULA>
C6H13NO2

> <MOLECULAR_WEIGHT>
131.1729

> <EXACT_MASS>
131.094628665

> <JCHEM_ACCEPTOR_COUNT>
3

> <JCHEM_AVERAGE_POLARIZABILITY>
14.45751106205492

> <JCHEM_BIOAVAILABILITY>
1

> <JCHEM_DONOR_COUNT>
2

> <JCHEM_FORMAL_CHARGE>
0

> <JCHEM_GHOSE_FILTER>
0

> <JCHEM_IUPAC>
(2S)-2-aminohexanoic acid

> <ALOGPS_LOGP>
-1.74

> <JCHEM_LOGP>
-1.4286287541080052

> <ALOGPS_LOGS>
-0.17

> <JCHEM_MDDR_LIKE_RULE>
0

> <JCHEM_NUMBER_OF_RINGS>
0

> <JCHEM_PHYSIOLOGICAL_CHARGE>
0

> <JCHEM_PKA_STRONGEST_ACIDIC>
2.7878511623266418

> <JCHEM_PKA_STRONGEST_BASIC>
9.526564602098674

> <JCHEM_POLAR_SURFACE_AREA>
63.31999999999999

> <JCHEM_REFRACTIVITY>
34.223299999999995

> <JCHEM_ROTATABLE_BOND_COUNT>
4

> <JCHEM_RULE_OF_FIVE>
1

> <ALOGPS_SOLUBILITY>
8.91e+01 g/l

> <JCHEM_TRADITIONAL_IUPAC>
caprine

> <JCHEM_VEBER_RULE>
0

> <HMDB_ID>
HMDB01645

> <GENERIC_NAME>
L-Norleucine

> <SYNONYMS>
(S)-2-amino-Hexanoate; (S)-2-amino-Hexanoic acid; (S)-2-Aminohexanoate; (S)-2-Aminohexanoic acid; (S)-Aminohexanoate; (S)-Aminohexanoic acid; (S)-Norleucine; 2-Aminocaproate; 2-Aminocaproic acid; 2-Aminohexanoate; 2-Aminohexanoic acid; Glycoleucine; L-(+)-Norleucine; L-2-Aminohexanoate; L-2-Aminohexanoic acid; L-Norleucine; Norleucine

$$$$
