Allocystathionine.mol
  Mrv0541 02231218322D          

 14 13  0  0  0  0            999 V2000
   -2.1434    0.0000    0.0000 C   0  0  0  0  0  0  0  0  0  0  0  0
   -1.4289   -1.2375    0.0000 N   0  0  0  0  0  0  0  0  0  0  0  0
   -1.4289   -0.4125    0.0000 C   0  0  1  0  0  0  0  0  0  0  0  0
   -0.7145    0.0000    0.0000 C   0  0  0  0  0  0  0  0  0  0  0  0
    0.0000   -0.4125    0.0000 C   0  0  0  0  0  0  0  0  0  0  0  0
    0.7145    0.0000    0.0000 S   0  0  0  0  0  0  0  0  0  0  0  0
   -2.1434    0.8250    0.0000 O   0  0  0  0  0  0  0  0  0  0  0  0
   -2.8579   -0.4125    0.0000 O   0  0  0  0  0  0  0  0  0  0  0  0
    1.4289   -0.4125    0.0000 C   0  0  0  0  0  0  0  0  0  0  0  0
    2.1434    0.0000    0.0000 C   0  0  0  0  0  0  0  0  0  0  0  0
    2.1434    0.8250    0.0000 C   0  0  0  0  0  0  0  0  0  0  0  0
    1.4289    1.2375    0.0000 O   0  0  0  0  0  0  0  0  0  0  0  0
    2.8579    1.2375    0.0000 O   0  0  0  0  0  0  0  0  0  0  0  0
    2.8579   -0.4125    0.0000 N   0  0  0  0  0  0  0  0  0  0  0  0
  3  2  1  6  0  0  0
  1  3  1  0  0  0  0
  3  4  1  0  0  0  0
  4  5  1  0  0  0  0
  5  6  1  0  0  0  0
  1  7  2  0  0  0  0
  1  8  1  0  0  0  0
  9 10  1  0  0  0  0
 11 12  2  0  0  0  0
 11 13  1  0  0  0  0
 10 11  1  0  0  0  0
 10 14  1  0  0  0  0
  6  9  1  0  0  0  0
M  END
> <DATABASE_ID>
HMDB00455

> <DATABASE_NAME>
hmdb

> <SMILES>
N[C@@H](CCSCC(N)C(O)=O)C(O)=O

> <INCHI_IDENTIFIER>
InChI=1S/C7H14N2O4S/c8-4(6(10)11)1-2-14-3-5(9)7(12)13/h4-5H,1-3,8-9H2,(H,10,11)(H,12,13)/t4-,5?/m0/s1

> <INCHI_KEY>
ILRYLPWNYFXEMH-ROLXFIACSA-N

> <FORMULA>
C7H14N2O4S

> <MOLECULAR_WEIGHT>
222.262

> <EXACT_MASS>
222.067427636

> <JCHEM_ACCEPTOR_COUNT>
6

> <JCHEM_AVERAGE_POLARIZABILITY>
22.276125373018278

> <JCHEM_BIOAVAILABILITY>
1

> <JCHEM_DONOR_COUNT>
4

> <JCHEM_FORMAL_CHARGE>
0

> <JCHEM_GHOSE_FILTER>
0

> <JCHEM_IUPAC>
(2S)-2-amino-4-[(2-amino-2-carboxyethyl)sulfanyl]butanoic acid

> <ALOGPS_LOGP>
-4.01

> <JCHEM_LOGP>
-5.818502121951177

> <ALOGPS_LOGS>
-1.11

> <JCHEM_MDDR_LIKE_RULE>
0

> <JCHEM_NUMBER_OF_RINGS>
0

> <JCHEM_PHYSIOLOGICAL_CHARGE>
0

> <JCHEM_PKA>
2.514696511113594

> <JCHEM_PKA_STRONGEST_ACIDIC>
1.793798721038319

> <JCHEM_PKA_STRONGEST_BASIC>
9.659588767699923

> <JCHEM_POLAR_SURFACE_AREA>
126.64000000000001

> <JCHEM_REFRACTIVITY>
51.568900000000006

> <JCHEM_ROTATABLE_BOND_COUNT>
7

> <JCHEM_RULE_OF_FIVE>
1

> <ALOGPS_SOLUBILITY>
1.73e+01 g/l

> <JCHEM_TRADITIONAL_IUPAC>
(2S)-2-amino-4-[(2-amino-2-carboxyethyl)sulfanyl]butanoic acid

> <JCHEM_VEBER_RULE>
0

> <HMDB_ID>
HMDB00455

> <GENERIC_NAME>
Allocystathionine

> <SYNONYMS>
a-Amino-g-(2-amino-2-carboxyethylmercapto)-Butyric acid; alpha-Amino-gamma-(2-amino-2-carboxyethylmercapto)-Butyric acid; DL-Allocystathionine; DL-S-(2-amino-2-carboxyethyl)-Homocysteine

$$$$
