Untitled Document-12
  Mrv0541 02231218462D          

 30 29  0  0  0  0            999 V2000
   -1.2355    6.6937    0.0000 N   0  3  0  0  0  0  0  0  0  0  0  0
   -0.4118    6.7409    0.0000 C   0  0  0  0  0  0  0  0  0  0  0  0
   -1.2827    7.5173    0.0000 C   0  0  0  0  0  0  0  0  0  0  0  0
   -2.0591    6.6464    0.0000 C   0  0  0  0  0  0  0  0  0  0  0  0
   -1.1882    5.8700    0.0000 C   0  0  0  0  0  0  0  0  0  0  0  0
    0.0409    6.0512    0.0000 C   0  0  0  0  0  0  0  0  0  0  0  0
    0.8646    6.0985    0.0000 C   0  0  0  0  0  0  0  0  0  0  0  0
    1.2355    6.8354    0.0000 C   0  0  0  0  0  0  0  0  0  0  0  0
    0.7827    7.5251    0.0000 O   0  5  0  0  0  0  0  0  0  0  0  0
   -0.3300    5.3143    0.0000 O   0  0  0  0  0  0  0  0  0  0  0  0
    0.1227    4.6246    0.0000 C   0  0  0  0  0  0  0  0  0  0  0  0
   -0.2482    3.8877    0.0000 C   0  0  0  0  0  0  0  0  0  0  0  0
    0.2046    3.1980    0.0000 C   0  0  0  0  0  0  0  0  0  0  0  0
   -0.1664    2.4611    0.0000 C   0  0  0  0  0  0  0  0  0  0  0  0
    0.2864    1.7714    0.0000 C   0  0  0  0  0  0  0  0  0  0  0  0
   -0.0845    1.0345    0.0000 C   0  0  0  0  0  0  0  0  0  0  0  0
    0.3682    0.3448    0.0000 C   0  0  0  0  0  0  0  0  0  0  0  0
   -0.0027   -0.3921    0.0000 C   0  0  0  0  0  0  0  0  0  0  0  0
    0.4500   -1.0818    0.0000 C   0  0  0  0  0  0  0  0  0  0  0  0
    0.0791   -1.8187    0.0000 C   0  0  0  0  0  0  0  0  0  0  0  0
    0.5318   -2.5084    0.0000 C   0  0  0  0  0  0  0  0  0  0  0  0
    0.1609   -3.2453    0.0000 C   0  0  0  0  0  0  0  0  0  0  0  0
    0.6137   -3.9350    0.0000 C   0  0  0  0  0  0  0  0  0  0  0  0
    0.2428   -4.6719    0.0000 C   0  0  0  0  0  0  0  0  0  0  0  0
    0.6955   -5.3615    0.0000 C   0  0  0  0  0  0  0  0  0  0  0  0
    0.3246   -6.0985    0.0000 C   0  0  0  0  0  0  0  0  0  0  0  0
    0.7773   -6.7881    0.0000 C   0  0  0  0  0  0  0  0  0  0  0  0
    0.4064   -7.5251    0.0000 C   0  0  0  0  0  0  0  0  0  0  0  0
    0.9464    4.6719    0.0000 O   0  0  0  0  0  0  0  0  0  0  0  0
    2.0591    6.8826    0.0000 O   0  0  0  0  0  0  0  0  0  0  0  0
  1  2  1  0  0  0  0
  1  3  1  0  0  0  0
  1  4  1  0  0  0  0
  1  5  1  0  0  0  0
  2  6  1  0  0  0  0
  6  7  1  0  0  0  0
  7  8  1  0  0  0  0
  8  9  1  0  0  0  0
 11 10  1  0  0  0  0
 12 11  1  0  0  0  0
 13 12  1  0  0  0  0
 14 13  1  0  0  0  0
 15 14  1  0  0  0  0
 16 15  1  0  0  0  0
 17 16  1  0  0  0  0
 18 17  1  0  0  0  0
 19 18  1  0  0  0  0
 20 19  1  0  0  0  0
 21 20  1  0  0  0  0
 22 21  1  0  0  0  0
 23 22  1  0  0  0  0
 24 23  1  0  0  0  0
 25 24  1  0  0  0  0
 26 25  1  0  0  0  0
 27 26  1  0  0  0  0
 28 27  1  0  0  0  0
  6 10  1  0  0  0  0
 11 29  2  0  0  0  0
  8 30  2  0  0  0  0
M  CHG  2   1   1   9  -1
M  END
> <DATABASE_ID>
HMDB00848

> <DATABASE_NAME>
hmdb

> <SMILES>
CCCCCCCCCCCCCCCCCC(=O)OC(CC([O-])=O)C[N+](C)(C)C

> <INCHI_IDENTIFIER>
InChI=1S/C25H49NO4/c1-5-6-7-8-9-10-11-12-13-14-15-16-17-18-19-20-25(29)30-23(21-24(27)28)22-26(2,3)4/h23H,5-22H2,1-4H3

> <INCHI_KEY>
FNPHNLNTJNMAEE-UHFFFAOYSA-N

> <FORMULA>
C25H49NO4

> <MOLECULAR_WEIGHT>
427.6609

> <EXACT_MASS>
427.366159061

> <JCHEM_ACCEPTOR_COUNT>
3

> <JCHEM_AVERAGE_POLARIZABILITY>
54.795779151670914

> <JCHEM_BIOAVAILABILITY>
1

> <JCHEM_DONOR_COUNT>
0

> <JCHEM_FORMAL_CHARGE>
0

> <JCHEM_GHOSE_FILTER>
0

> <JCHEM_IUPAC>
3-(octadecanoyloxy)-4-(trimethylazaniumyl)butanoate

> <ALOGPS_LOGP>
2.62

> <JCHEM_LOGP>
2.9226851841949206

> <ALOGPS_LOGS>
-7.68

> <JCHEM_MDDR_LIKE_RULE>
0

> <JCHEM_NUMBER_OF_RINGS>
0

> <JCHEM_PHYSIOLOGICAL_CHARGE>
0

> <JCHEM_PKA_STRONGEST_ACIDIC>
4.216763902737658

> <JCHEM_PKA_STRONGEST_BASIC>
-7.057186892022333

> <JCHEM_POLAR_SURFACE_AREA>
66.43

> <JCHEM_REFRACTIVITY>
146.27870000000001

> <JCHEM_ROTATABLE_BOND_COUNT>
22

> <JCHEM_RULE_OF_FIVE>
1

> <ALOGPS_SOLUBILITY>
1.01e-05 g/l

> <JCHEM_TRADITIONAL_IUPAC>
(-)-stearoylcarnitine

> <JCHEM_VEBER_RULE>
0

> <HMDB_ID>
HMDB00848

> <GENERIC_NAME>
Stearoylcarnitine

> <SYNONYMS>
(-)-Stearoylcarnitine; (R)-3-carboxy-N,N,N-trimethyl-2-[(1-oxooctadecyl)oxy]-1-Propanaminium inner salt; (R)-Stearoylcarnitine; Acylcarnitine C18:0; L-(3-Carboxy-2-hydroxypropyl)trimethyl-Ammonium stearate hydroxide inner salt; L-Stearic acid ester with (3-carboxy-2-hydroxypropyl)trimethylammonium hydroxide inner salt; L-Stearoylcarnitine; Octadecanoyl-L-carnitine; Octadecanoylcarnitine; Stearoyl-L-carnitine; Stearoylcarnitine

$$$$
