
  Mrv0541 02231217332D          

 12 11  0  0  1  0            999 V2000
    1.7605    1.8414    0.0000 N   0  0  0  0  0  0  0  0  0  0  0  0
    2.4750    1.4289    0.0000 C   0  0  0  0  0  0  0  0  0  0  0  0
    2.4750    0.6039    0.0000 O   0  0  0  0  0  0  0  0  0  0  0  0
    3.1895    1.8414    0.0000 N   0  0  0  0  0  0  0  0  0  0  0  0
    3.9039    1.4289    0.0000 C   0  0  1  0  0  0  0  0  0  0  0  0
    4.6184    1.8414    0.0000 C   0  0  0  0  0  0  0  0  0  0  0  0
    5.3329    1.4289    0.0000 C   0  0  0  0  0  0  0  0  0  0  0  0
    6.0474    1.8414    0.0000 O   0  0  0  0  0  0  0  0  0  0  0  0
    5.3329    0.6039    0.0000 O   0  0  0  0  0  0  0  0  0  0  0  0
    3.9039    0.6039    0.0000 C   0  0  0  0  0  0  0  0  0  0  0  0
    4.6184    0.1914    0.0000 O   0  0  0  0  0  0  0  0  0  0  0  0
    3.1895    0.1914    0.0000 O   0  0  0  0  0  0  0  0  0  0  0  0
  1  2  1  0  0  0  0
  2  3  2  0  0  0  0
  2  4  1  0  0  0  0
  5  4  1  1  0  0  0
  5  6  1  0  0  0  0
  6  7  1  0  0  0  0
  7  8  1  0  0  0  0
  7  9  2  0  0  0  0
  5 10  1  0  0  0  0
 10 11  1  0  0  0  0
 10 12  2  0  0  0  0
M  END
> <DATABASE_ID>
HMDB00828

> <DATABASE_NAME>
hmdb

> <SMILES>
NC(=O)N[C@@H](CC(O)=O)C(O)=O

> <INCHI_IDENTIFIER>
InChI=1S/C5H8N2O5/c6-5(12)7-2(4(10)11)1-3(8)9/h2H,1H2,(H,8,9)(H,10,11)(H3,6,7,12)/t2-/m0/s1

> <INCHI_KEY>
HLKXYZVTANABHZ-REOHCLBHSA-N

> <FORMULA>
C5H8N2O5

> <MOLECULAR_WEIGHT>
176.1274

> <EXACT_MASS>
176.043321376

> <JCHEM_ACCEPTOR_COUNT>
5

> <JCHEM_AVERAGE_POLARIZABILITY>
14.723989238645803

> <JCHEM_BIOAVAILABILITY>
1

> <JCHEM_DONOR_COUNT>
4

> <JCHEM_FORMAL_CHARGE>
0

> <JCHEM_GHOSE_FILTER>
0

> <JCHEM_IUPAC>
(2S)-2-(carbamoylamino)butanedioic acid

> <ALOGPS_LOGP>
-1.12

> <JCHEM_LOGP>
-1.7352221553333331

> <ALOGPS_LOGS>
-0.92

> <JCHEM_MDDR_LIKE_RULE>
0

> <JCHEM_NUMBER_OF_RINGS>
0

> <JCHEM_PHYSIOLOGICAL_CHARGE>
-2

> <JCHEM_PKA>
5.2526016307709105

> <JCHEM_PKA_STRONGEST_ACIDIC>
3.333225520739885

> <JCHEM_PKA_STRONGEST_BASIC>
-2.589637248709309

> <JCHEM_POLAR_SURFACE_AREA>
129.72000000000003

> <JCHEM_REFRACTIVITY>
34.653200000000005

> <JCHEM_ROTATABLE_BOND_COUNT>
4

> <JCHEM_RULE_OF_FIVE>
1

> <ALOGPS_SOLUBILITY>
2.13e+01 g/l

> <JCHEM_TRADITIONAL_IUPAC>
carbamylaspartic acid

> <JCHEM_VEBER_RULE>
0

> <HMDB_ID>
HMDB00828

> <GENERIC_NAME>
Ureidosuccinic acid

> <SYNONYMS>
2-Ureidobutanedioate; 2-Ureidobutanedioic acid; Carbamoylaspartic acid; Carbamyl-L-aspartic acid; Carbamylaspartic acid; L-N-Carbamoylaspartic acid; L-Ureidosuccinate; L-Ureidosuccinic acid; N-(Aminocarbonyl)-L-aspartic acid; N-Carbamoyl-L-aspartate; N-Carbamoyl-L-aspartic acid; N-Carbamoyl-S-aspartic acid; N-Carbamoylaspartate; N-Carbamoylaspartic acid; NCD; Ureidosuccinate

$$$$
