
  Mrv0541 02231218182D          

  9  8  0  0  0  0            999 V2000
    1.6734    0.0379    0.0000 C   0  0  0  0  0  0  0  0  0  0  0  0
    0.9578    0.4505    0.0000 C   0  0  0  0  0  0  0  0  0  0  0  0
    1.6696   -0.7837    0.0000 O   0  0  0  0  0  0  0  0  0  0  0  0
    2.3852    0.4543    0.0000 O   0  0  0  0  0  0  0  0  0  0  0  0
    0.2460    0.0379    0.0000 C   0  0  0  0  0  0  0  0  0  0  0  0
   -0.7080    0.4656    0.0000 N   0  0  0  0  0  0  0  0  0  0  0  0
   -1.8400   -0.0833    0.0000 C   0  0  0  0  0  0  0  0  0  0  0  0
   -2.5517    0.3294    0.0000 N   0  0  0  0  0  0  0  0  0  0  0  0
   -1.8362   -0.9087    0.0000 O   0  0  0  0  0  0  0  0  0  0  0  0
  1  2  1  0  0  0  0
  1  3  1  0  0  0  0
  1  4  2  0  0  0  0
  2  5  1  0  0  0  0
  5  6  1  0  0  0  0
  6  7  1  0  0  0  0
  7  8  1  0  0  0  0
  7  9  2  0  0  0  0
M  END
> <DATABASE_ID>
HMDB00026

> <DATABASE_NAME>
hmdb

> <SMILES>
NC(=O)NCCC(O)=O

> <INCHI_IDENTIFIER>
InChI=1S/C4H8N2O3/c5-4(9)6-2-1-3(7)8/h1-2H2,(H,7,8)(H3,5,6,9)

> <INCHI_KEY>
JSJWCHRYRHKBBW-UHFFFAOYSA-N

> <FORMULA>
C4H8N2O3

> <MOLECULAR_WEIGHT>
132.1179

> <EXACT_MASS>
132.053492132

> <JCHEM_ACCEPTOR_COUNT>
3

> <JCHEM_AVERAGE_POLARIZABILITY>
12.071420624203114

> <JCHEM_BIOAVAILABILITY>
1

> <JCHEM_DONOR_COUNT>
3

> <JCHEM_FORMAL_CHARGE>
0

> <JCHEM_GHOSE_FILTER>
0

> <JCHEM_IUPAC>
3-(carbamoylamino)propanoic acid

> <ALOGPS_LOGP>
-0.98

> <JCHEM_LOGP>
-1.4251617513333334

> <ALOGPS_LOGS>
-0.40

> <JCHEM_MDDR_LIKE_RULE>
0

> <JCHEM_NUMBER_OF_RINGS>
0

> <JCHEM_PHYSIOLOGICAL_CHARGE>
-1

> <JCHEM_PKA>
15.091837235034252

> <JCHEM_PKA_STRONGEST_ACIDIC>
4.228429121891982

> <JCHEM_PKA_STRONGEST_BASIC>
-2.047646309960027

> <JCHEM_POLAR_SURFACE_AREA>
92.41999999999999

> <JCHEM_REFRACTIVITY>
28.823300000000003

> <JCHEM_ROTATABLE_BOND_COUNT>
3

> <JCHEM_RULE_OF_FIVE>
1

> <ALOGPS_SOLUBILITY>
5.27e+01 g/l

> <JCHEM_TRADITIONAL_IUPAC>
ureidopropionic acid

> <JCHEM_VEBER_RULE>
0

> <HMDB_ID>
HMDB00026

> <GENERIC_NAME>
Ureidopropionic acid

> <SYNONYMS>
3-(Carbamoylamino)propanoate; 3-(Carbamoylamino)propanoic acid; 3-Ureido-propionate; 3-Ureidopropanoate; 3-Ureidopropanoic acid; 3-Ureidopropionate; 3-Ureidopropionic acid; beta-Ureidopropionate; beta-Ureidopropionic acid; Carbamoyl-b-Ala-OH; Carbamoyl-beta-Ala-OH; N-(Aminocarbonyl)-'b-Alanine; N-(Aminocarbonyl)-b-alanine; N-(Aminocarbonyl)-beta-Alanine; N-Carbamoyl-b-alanine; N-Carbamoyl-beta-alanine; N-Carbamyl-b-alanine; N-Carbamyl-beta-alanine; Ureidopropionate; Ureidopropionic acid

$$$$
