
  Mrv0541 02231218482D          

 49 52  0  0  1  0            999 V2000
   13.3384  -16.4401    0.0000 C   0  0  0  0  0  0  0  0  0  0  0  0
   13.3384  -17.2662    0.0000 C   0  0  1  0  0  0  0  0  0  0  0  0
   14.0585  -17.6792    0.0000 C   0  0  0  0  0  0  0  0  0  0  0  0
   14.0585  -16.0272    0.0000 C   0  0  0  0  0  0  0  0  0  0  0  0
   14.7703  -16.4401    0.0000 C   0  0  1  0  0  0  0  0  0  0  0  0
   14.7667  -17.2662    0.0000 C   0  0  0  0  0  0  0  0  0  0  0  0
   15.4791  -17.6822    0.0000 C   0  0  0  0  0  0  0  0  0  0  0  0
   16.1951  -17.2724    0.0000 C   0  0  0  0  0  0  0  0  0  0  0  0
   15.4862  -16.0302    0.0000 C   0  0  2  0  0  0  0  0  0  0  0  0
   16.1951  -16.4480    0.0000 C   0  0  2  0  0  0  0  0  0  0  0  0
   16.2087  -14.8004    0.0000 C   0  0  0  0  0  0  0  0  0  0  0  0
   15.4930  -15.2064    0.0000 C   0  0  0  0  0  0  0  0  0  0  0  0
   16.9219  -15.2182    0.0000 C   0  0  1  0  0  0  0  0  0  0  0  0
   16.9118  -16.0395    0.0000 C   0  0  1  0  0  0  0  0  0  0  0  0
   18.3321  -16.0569    0.0000 C   0  0  0  0  0  0  0  0  0  0  0  0
   18.3422  -15.2356    0.0000 C   0  0  0  0  0  0  0  0  0  0  0  0
   17.6371  -14.8163    0.0000 C   0  0  2  0  0  0  0  0  0  0  0  0
   12.6219  -17.6749    0.0000 O   0  0  0  0  0  0  0  0  0  0  0  0
   11.9055  -17.2619    0.0000 C   0  0  0  0  0  0  0  0  0  0  0  0
   11.1848  -17.6707    0.0000 C   0  0  0  0  0  0  0  0  0  0  0  0
   10.4683  -17.2577    0.0000 C   0  0  0  0  0  0  0  0  0  0  0  0
   11.9012  -16.4359    0.0000 O   0  0  0  0  0  0  0  0  0  0  0  0
   14.7628  -15.6142    0.0000 C   0  0  0  0  0  0  0  0  0  0  0  0
   17.6327  -13.9874    0.0000 C   0  0  1  0  0  0  0  0  0  0  0  0
   18.3450  -13.5702    0.0000 C   0  0  0  0  0  0  0  0  0  0  0  0
   19.0614  -13.9832    0.0000 C   0  0  0  0  0  0  0  0  0  0  0  0
   19.7736  -13.5659    0.0000 C   0  0  0  0  0  0  0  0  0  0  0  0
   20.4858  -13.9789    0.0000 C   0  0  0  0  0  0  0  0  0  0  0  0
   20.4816  -14.8049    0.0000 C   0  0  0  0  0  0  0  0  0  0  0  0
   21.1981  -13.5618    0.0000 C   0  0  0  0  0  0  0  0  0  0  0  0
   18.4335  -14.5943    0.0000 H   0  0  0  0  0  0  0  0  0  0  0  0
   16.9036  -16.8616    0.0000 H   0  0  0  0  0  0  0  0  0  0  0  0
   16.1872  -15.6183    0.0000 H   0  0  0  0  0  0  0  0  0  0  0  0
   15.4792  -16.8532    0.0000 H   0  0  0  0  0  0  0  0  0  0  0  0
   16.9163  -14.3920    0.0000 C   0  0  0  0  0  0  0  0  0  0  0  0
    9.7547  -17.6717    0.0000 C   0  0  0  0  0  0  0  0  0  0  0  0
    9.0399  -17.2596    0.0000 C   0  0  0  0  0  0  0  0  0  0  0  0
    8.3220  -17.6736    0.0000 C   0  0  0  0  0  0  0  0  0  0  0  0
    7.6072  -17.2616    0.0000 C   0  0  0  0  0  0  0  0  0  0  0  0
    6.8936  -17.6755    0.0000 C   0  0  0  0  0  0  0  0  0  0  0  0
    6.8947  -18.5016    0.0000 C   0  0  0  0  0  0  0  0  0  0  0  0
    7.6095  -18.9136    0.0000 C   0  0  0  0  0  0  0  0  0  0  0  0
    8.3191  -18.4967    0.0000 C   0  0  0  0  0  0  0  0  0  0  0  0
    9.0355  -18.9055    0.0000 C   0  0  0  0  0  0  0  0  0  0  0  0
    9.7477  -18.4925    0.0000 C   0  0  0  0  0  0  0  0  0  0  0  0
   10.4600  -18.9013    0.0000 C   0  0  0  0  0  0  0  0  0  0  0  0
   11.1722  -18.4883    0.0000 C   0  0  0  0  0  0  0  0  0  0  0  0
   11.8887  -18.8970    0.0000 C   0  0  0  0  0  0  0  0  0  0  0  0
   16.9162  -13.5784    0.0000 C   0  0  0  0  0  0  0  0  0  0  0  0
 16 17  1  0  0  0  0
  5 23  1  1  0  0  0
 17 13  1  0  0  0  0
 17 24  1  0  0  0  0
 14 15  1  0  0  0  0
  8 10  1  0  0  0  0
  2 18  1  1  0  0  0
 24 25  1  0  0  0  0
  9  5  1  0  0  0  0
 25 26  1  0  0  0  0
 18 19  1  0  0  0  0
 26 27  1  0  0  0  0
  5  4  1  0  0  0  0
 27 28  1  0  0  0  0
 19 20  1  0  0  0  0
 28 29  1  0  0  0  0
  4  1  1  0  0  0  0
 28 30  1  0  0  0  0
 20 21  1  0  0  0  0
 17 31  1  6  0  0  0
 14 32  1  6  0  0  0
 10 33  1  1  0  0  0
  1  2  1  0  0  0  0
  9 34  1  6  0  0  0
 13 35  1  1  0  0  0
 21 36  1  0  0  0  0
  9 10  1  0  0  0  0
 36 37  1  0  0  0  0
 19 22  2  0  0  0  0
 37 38  1  0  0  0  0
 10 14  1  0  0  0  0
 38 39  1  0  0  0  0
 13 11  1  0  0  0  0
 39 40  1  0  0  0  0
 11 12  1  0  0  0  0
 40 41  1  0  0  0  0
 12  9  1  0  0  0  0
 41 42  1  0  0  0  0
  2  3  1  0  0  0  0
 42 43  1  0  0  0  0
  3  6  1  0  0  0  0
 43 44  1  0  0  0  0
  5  6  1  0  0  0  0
 44 45  1  0  0  0  0
  6  7  2  0  0  0  0
 45 46  1  0  0  0  0
  7  8  1  0  0  0  0
 46 47  1  0  0  0  0
 13 14  1  0  0  0  0
 47 48  1  0  0  0  0
 15 16  1  0  0  0  0
 24 49  1  6  0  0  0
M  END
> <DATABASE_ID>
HMDB00885

> <DATABASE_NAME>
hmdb

> <SMILES>
[H][C@@]1(CC[C@@]2([H])[C@]3([H])CC=C4C[C@H](CC[C@]4(C)[C@@]3([H])CC[C@]12C)OC(=O)CCCCCCCCCCCCCCC)[C@H](C)CCCC(C)C

> <INCHI_IDENTIFIER>
InChI=1S/C43H76O2/c1-7-8-9-10-11-12-13-14-15-16-17-18-19-23-41(44)45-36-28-30-42(5)35(32-36)24-25-37-39-27-26-38(34(4)22-20-21-33(2)3)43(39,6)31-29-40(37)42/h24,33-34,36-40H,7-23,25-32H2,1-6H3/t34-,36+,37+,38-,39+,40+,42+,43-/m1/s1

> <INCHI_KEY>
BBJQPKLGPMQWBU-JADYGXMDSA-N

> <FORMULA>
C43H76O2

> <MOLECULAR_WEIGHT>
625.0623

> <EXACT_MASS>
624.584531676

> <JCHEM_ACCEPTOR_COUNT>
1

> <JCHEM_AVERAGE_POLARIZABILITY>
84.17088216170437

> <JCHEM_BIOAVAILABILITY>
0

> <JCHEM_DONOR_COUNT>
0

> <JCHEM_FORMAL_CHARGE>
0

> <JCHEM_GHOSE_FILTER>
0

> <JCHEM_IUPAC>
(1S,2R,5S,10S,11S,14R,15R)-2,15-dimethyl-14-[(2R)-6-methylheptan-2-yl]tetracyclo[8.7.0.0²,⁷.0¹¹,¹⁵]heptadec-7-en-5-yl hexadecanoate

> <ALOGPS_LOGP>
10.57

> <JCHEM_LOGP>
14.033942933

> <ALOGPS_LOGS>
-7.96

> <JCHEM_MDDR_LIKE_RULE>
1

> <JCHEM_NUMBER_OF_RINGS>
4

> <JCHEM_PHYSIOLOGICAL_CHARGE>
0

> <JCHEM_PKA_STRONGEST_BASIC>
-7.0421985486871135

> <JCHEM_POLAR_SURFACE_AREA>
26.3

> <JCHEM_REFRACTIVITY>
194.2079

> <JCHEM_ROTATABLE_BOND_COUNT>
21

> <JCHEM_RULE_OF_FIVE>
0

> <ALOGPS_SOLUBILITY>
6.89e-06 g/l

> <JCHEM_TRADITIONAL_IUPAC>
cholesteryl palmitate

> <JCHEM_VEBER_RULE>
0

> <HMDB_ID>
HMDB00885

> <GENERIC_NAME>
CE(16:0)

> <SYNONYMS>
1-Palmitoyl-cholesterol; 16:0 Cholesterol ester; Cholest-5-en-3-yl palmitate; Cholest-5-ene-3-beta-yl palmitate; Cholesterol 1-hexadecanoate; Cholesterol 1-hexadecanoic acid; Cholesterol 1-palmitoate; Cholesterol 1-palmitoic acid; Cholesterol Ester(16:0); Cholesterol Ester(16:0/0:0); Cholesterol palmitate; Cholesteryl 1-hexadecanoate; Cholesteryl 1-hexadecanoic acid; Cholesteryl 1-palmitoate; Cholesteryl 1-palmitoic acid; Cholesteryl hexadecanoate; Cholesteryl hexadecanoic acid; Cholesteryl palmitate; Cholesteryl palmitic acid; Hexadecanoate; Hexadecanoic acid; Hexadecanoic acid cholesteryl ester; Palmitic acid cholesteryl ester

$$$$
