HMDB00635.mol
  Mrv0541 02231218392D          

 11 10  0  0  0  0            999 V2000
   -2.5006    0.2062    0.0000 O   0  0  0  0  0  0  0  0  0  0  0  0
   -1.7862   -0.2062    0.0000 C   0  0  0  0  0  0  0  0  0  0  0  0
   -1.0717    0.2062    0.0000 C   0  0  0  0  0  0  0  0  0  0  0  0
   -0.3572   -0.2062    0.0000 C   0  0  0  0  0  0  0  0  0  0  0  0
    0.3572    0.2062    0.0000 C   0  0  0  0  0  0  0  0  0  0  0  0
    1.0717   -0.2062    0.0000 C   0  0  0  0  0  0  0  0  0  0  0  0
    1.7862    0.2062    0.0000 C   0  0  0  0  0  0  0  0  0  0  0  0
    2.5006   -0.2062    0.0000 C   0  0  0  0  0  0  0  0  0  0  0  0
   -1.7862   -1.0312    0.0000 O   0  0  0  0  0  0  0  0  0  0  0  0
    0.3572    1.0312    0.0000 O   0  0  0  0  0  0  0  0  0  0  0  0
    1.7862    1.0312    0.0000 O   0  0  0  0  0  0  0  0  0  0  0  0
  2  1  1  0  0  0  0
  3  2  1  0  0  0  0
  4  3  1  0  0  0  0
  5  4  1  0  0  0  0
  6  5  1  0  0  0  0
  7  6  1  0  0  0  0
  8  7  1  0  0  0  0
  2  9  2  0  0  0  0
  5 10  2  0  0  0  0
  7 11  2  0  0  0  0
M  END
> <DATABASE_ID>
HMDB00635

> <DATABASE_NAME>
hmdb

> <SMILES>
CC(=O)CC(=O)CCC(O)=O

> <INCHI_IDENTIFIER>
InChI=1S/C7H10O4/c1-5(8)4-6(9)2-3-7(10)11/h2-4H2,1H3,(H,10,11)

> <INCHI_KEY>
WYEPBHZLDUPIOD-UHFFFAOYSA-N

> <FORMULA>
C7H10O4

> <MOLECULAR_WEIGHT>
158.1519

> <EXACT_MASS>
158.057908808

> <JCHEM_ACCEPTOR_COUNT>
4

> <JCHEM_AVERAGE_POLARIZABILITY>
15.067950895772393

> <JCHEM_BIOAVAILABILITY>
1

> <JCHEM_DONOR_COUNT>
1

> <JCHEM_FORMAL_CHARGE>
0

> <JCHEM_GHOSE_FILTER>
0

> <JCHEM_IUPAC>
4,6-dioxoheptanoic acid

> <ALOGPS_LOGP>
-0.18

> <JCHEM_LOGP>
0.15299652399999994

> <ALOGPS_LOGS>
-0.82

> <JCHEM_MDDR_LIKE_RULE>
0

> <JCHEM_NUMBER_OF_RINGS>
0

> <JCHEM_PHYSIOLOGICAL_CHARGE>
-1

> <JCHEM_PKA>
9.02074950449731

> <JCHEM_PKA_STRONGEST_ACIDIC>
4.154386708536616

> <JCHEM_PKA_STRONGEST_BASIC>
-7.160172381181644

> <JCHEM_POLAR_SURFACE_AREA>
71.44

> <JCHEM_REFRACTIVITY>
36.9833

> <JCHEM_ROTATABLE_BOND_COUNT>
5

> <JCHEM_RULE_OF_FIVE>
1

> <ALOGPS_SOLUBILITY>
2.41e+01 g/l

> <JCHEM_TRADITIONAL_IUPAC>
succinylacetone

> <JCHEM_VEBER_RULE>
0

> <HMDB_ID>
HMDB00635

> <GENERIC_NAME>
Succinylacetone

> <SYNONYMS>
4,6-Dioxoheptanoate; 4,6-Dioxoheptanoic acid; Succinylacetone

$$$$
