HMDB03236.mol
  Mrv0541 02231219402D          

 43 47  0  0  0  0            999 V2000
    3.2151   -0.2062    0.0000 C   0  0  2  0  0  0  0  0  0  0  0  0
    3.2151   -1.0313    0.0000 C   0  0  0  0  0  0  0  0  0  0  0  0
    2.5006   -1.4438    0.0000 C   0  0  0  0  0  0  0  0  0  0  0  0
    1.7862   -1.0313    0.0000 C   0  0  0  0  0  0  0  0  0  0  0  0
    1.0717   -1.4437    0.0000 C   0  0  0  0  0  0  0  0  0  0  0  0
    0.3572   -1.0313    0.0000 C   0  0  0  0  0  0  0  0  0  0  0  0
    0.3572   -0.2062    0.0000 C   0  0  0  0  0  0  0  0  0  0  0  0
    1.0717    0.2062    0.0000 C   0  0  0  0  0  0  0  0  0  0  0  0
    1.7862   -0.2062    0.0000 C   0  0  0  0  0  0  0  0  0  0  0  0
    2.5006    0.2062    0.0000 O   0  0  0  0  0  0  0  0  0  0  0  0
    2.5006   -2.2687    0.0000 O   0  0  0  0  0  0  0  0  0  0  0  0
   -0.3572    0.2062    0.0000 O   0  0  0  0  0  0  0  0  0  0  0  0
   -1.7862    0.2062    0.0000 O   0  0  0  0  0  0  0  0  0  0  0  0
   -1.0717   -0.2062    0.0000 C   0  0  0  0  0  0  0  0  0  0  0  0
   -1.0717   -1.0313    0.0000 C   0  0  1  0  0  0  0  0  0  0  0  0
   -1.7862   -1.4437    0.0000 C   0  0  2  0  0  0  0  0  0  0  0  0
   -2.5006   -1.0313    0.0000 C   0  0  2  0  0  0  0  0  0  0  0  0
   -2.5006   -0.2062    0.0000 C   0  0  1  0  0  0  0  0  0  0  0  0
   -3.2151    0.2062    0.0000 C   0  0  0  0  0  0  0  0  0  0  0  0
   -3.9296   -0.2062    0.0000 O   0  0  0  0  0  0  0  0  0  0  0  0
   -4.6441    1.0313    0.0000 O   0  0  0  0  0  0  0  0  0  0  0  0
   -4.6441    0.2062    0.0000 C   0  0  1  0  0  0  0  0  0  0  0  0
   -5.3585   -0.2062    0.0000 C   0  0  1  0  0  0  0  0  0  0  0  0
   -6.0730    0.2062    0.0000 C   0  0  1  0  0  0  0  0  0  0  0  0
   -6.0730    1.0313    0.0000 C   0  0  1  0  0  0  0  0  0  0  0  0
   -5.3585    1.4437    0.0000 C   0  0  2  0  0  0  0  0  0  0  0  0
   -5.3585    2.2687    0.0000 C   0  0  0  0  0  0  0  0  0  0  0  0
   -6.7875    1.4437    0.0000 O   0  0  0  0  0  0  0  0  0  0  0  0
   -6.7875   -0.2062    0.0000 O   0  0  0  0  0  0  0  0  0  0  0  0
   -5.3585   -1.0313    0.0000 O   0  0  0  0  0  0  0  0  0  0  0  0
   -3.2151   -1.4437    0.0000 O   0  0  0  0  0  0  0  0  0  0  0  0
   -1.7862   -2.2687    0.0000 O   0  0  0  0  0  0  0  0  0  0  0  0
   -0.3572   -1.4438    0.0000 O   0  0  0  0  0  0  0  0  0  0  0  0
    3.9296    0.2062    0.0000 C   0  0  0  0  0  0  0  0  0  0  0  0
    3.9296    1.0313    0.0000 C   0  0  0  0  0  0  0  0  0  0  0  0
    4.6441    1.4437    0.0000 C   0  0  0  0  0  0  0  0  0  0  0  0
    5.3585    1.0313    0.0000 C   0  0  0  0  0  0  0  0  0  0  0  0
    5.3585    0.2062    0.0000 C   0  0  0  0  0  0  0  0  0  0  0  0
    4.6441   -0.2063    0.0000 C   0  0  0  0  0  0  0  0  0  0  0  0
    6.0730    1.4437    0.0000 O   0  0  0  0  0  0  0  0  0  0  0  0
    6.7875    1.0313    0.0000 C   0  0  0  0  0  0  0  0  0  0  0  0
    4.6441    2.2687    0.0000 O   0  0  0  0  0  0  0  0  0  0  0  0
    1.0717   -2.2687    0.0000 O   0  0  0  0  0  0  0  0  0  0  0  0
  1  2  1  0  0  0  0
  2  3  1  0  0  0  0
  3  4  1  0  0  0  0
  4  5  1  0  0  0  0
  5  6  2  0  0  0  0
  6  7  1  0  0  0  0
  7  8  2  0  0  0  0
  8  9  1  0  0  0  0
  4  9  2  0  0  0  0
  9 10  1  0  0  0  0
  1 10  1  0  0  0  0
  3 11  2  0  0  0  0
 13 14  1  0  0  0  0
 14 15  1  0  0  0  0
 15 16  1  0  0  0  0
 16 17  1  0  0  0  0
 17 18  1  0  0  0  0
 13 18  1  0  0  0  0
 21 22  1  0  0  0  0
 22 23  1  0  0  0  0
 23 24  1  0  0  0  0
 24 25  1  0  0  0  0
 25 26  1  0  0  0  0
 21 26  1  0  0  0  0
 26 27  1  6  0  0  0
 25 28  1  6  0  0  0
 24 29  1  6  0  0  0
 23 30  1  6  0  0  0
 22 20  1  6  0  0  0
 19 20  1  0  0  0  0
 18 19  1  1  0  0  0
 17 31  1  1  0  0  0
 16 32  1  1  0  0  0
 15 33  1  6  0  0  0
 12 14  1  0  0  0  0
  7 12  1  0  0  0  0
 34 35  1  0  0  0  0
 35 36  2  0  0  0  0
 36 37  1  0  0  0  0
 37 38  2  0  0  0  0
 38 39  1  0  0  0  0
 34 39  2  0  0  0  0
 40 41  1  0  0  0  0
 37 40  1  0  0  0  0
 36 42  1  0  0  0  0
  1 34  1  6  0  0  0
  5 43  1  0  0  0  0
M  END
> <DATABASE_ID>
HMDB03265

> <DATABASE_NAME>
hmdb

> <SMILES>
COC1=CC=C(C=C1O)[C@@H]1CC(=O)C2=C(O1)C=C(OC1O[C@H](CO[C@H]3O[C@@H](C)[C@@H](O)[C@@H](O)[C@H]3O)[C@H](O)[C@H](O)[C@H]1O)C=C2O

> <INCHI_IDENTIFIER>
InChI=1S/C28H34O15/c1-10-21(32)23(34)25(36)27(40-10)39-9-19-22(33)24(35)26(37)28(43-19)41-12-6-14(30)20-15(31)8-17(42-18(20)7-12)11-3-4-16(38-2)13(29)5-11/h3-7,10,17,19,21-30,32-37H,8-9H2,1-2H3/t10-,17-,19+,21+,22-,23+,24-,25+,26+,27-,28?/m0/s1

> <INCHI_KEY>
QUQPHWDTPGMPEX-UNZJSITISA-N

> <FORMULA>
C28H34O15

> <MOLECULAR_WEIGHT>
610.5606

> <EXACT_MASS>
610.189770418

> <JCHEM_ACCEPTOR_COUNT>
15

> <JCHEM_AVERAGE_POLARIZABILITY>
59.75890596605899

> <JCHEM_BIOAVAILABILITY>
0

> <JCHEM_DONOR_COUNT>
8

> <JCHEM_FORMAL_CHARGE>
0

> <JCHEM_GHOSE_FILTER>
0

> <JCHEM_IUPAC>
(2S)-5-hydroxy-2-(3-hydroxy-4-methoxyphenyl)-7-{[(3R,4S,5R,6R)-3,4,5-trihydroxy-6-({[(2S,3R,4R,5S,6S)-3,4,5-trihydroxy-6-methyloxan-2-yl]oxy}methyl)oxan-2-yl]oxy}-3,4-dihydro-2H-1-benzopyran-4-one

> <ALOGPS_LOGP>
-0.27

> <JCHEM_LOGP>
-0.31455698766666607

> <ALOGPS_LOGS>
-2.36

> <JCHEM_MDDR_LIKE_RULE>
1

> <JCHEM_NUMBER_OF_RINGS>
5

> <JCHEM_PHYSIOLOGICAL_CHARGE>
0

> <JCHEM_PKA>
10.112830323280502

> <JCHEM_PKA_STRONGEST_ACIDIC>
9.51304693784186

> <JCHEM_PKA_STRONGEST_BASIC>
-3.6121823516836606

> <JCHEM_POLAR_SURFACE_AREA>
234.28999999999996

> <JCHEM_REFRACTIVITY>
140.767

> <JCHEM_ROTATABLE_BOND_COUNT>
7

> <JCHEM_RULE_OF_FIVE>
0

> <ALOGPS_SOLUBILITY>
2.69e+00 g/l

> <JCHEM_TRADITIONAL_IUPAC>
hesperidine

> <JCHEM_VEBER_RULE>
0

> <HMDB_ID>
HMDB03265

> <GENERIC_NAME>
Hesperidin

> <SYNONYMS>
(2S)-Hesperidin; (S)-(-)-Hesperidin; Atripliside B; Cirantin; Ciratin; Flavanone, 3',5,7-trihydroxy-4'-methoxy-, 7-(6-O-a-L-rhamnosyl-D-glucoside) (7CI); Flavanone, 3',5,7-trihydroxy-4'-methoxy-, 7-(6-O-alpha-L-rhamnosyl-delta-glucoside) (7CI); Hesper bitabs; Hesperetin 7-O-rutinoside; Hesperetin-7-rutinoside; Hesperetin-rutinoside; Hesperidine; Hesperidoside; Hesperitin-7-rhamnoglucoside

$$$$
