Oxalacetic acid.mol
  Mrv0541 02231218242D          

  9  8  0  0  0  0            999 V2000
    1.0717   -0.2062    0.0000 C   0  0  0  0  0  0  0  0  0  0  0  0
    0.3572    0.2063    0.0000 C   0  0  0  0  0  0  0  0  0  0  0  0
   -0.3572   -0.2062    0.0000 C   0  0  0  0  0  0  0  0  0  0  0  0
   -0.3572   -1.0313    0.0000 O   0  0  0  0  0  0  0  0  0  0  0  0
   -1.0717    0.2062    0.0000 C   0  0  0  0  0  0  0  0  0  0  0  0
    1.0717   -1.0312    0.0000 O   0  0  0  0  0  0  0  0  0  0  0  0
    1.7862    0.2063    0.0000 O   0  0  0  0  0  0  0  0  0  0  0  0
   -1.0717    1.0313    0.0000 O   0  0  0  0  0  0  0  0  0  0  0  0
   -1.7862   -0.2062    0.0000 O   0  0  0  0  0  0  0  0  0  0  0  0
  1  2  1  0  0  0  0
  2  3  1  0  0  0  0
  3  4  2  0  0  0  0
  3  5  1  0  0  0  0
  1  6  2  0  0  0  0
  1  7  1  0  0  0  0
  5  8  2  0  0  0  0
  5  9  1  0  0  0  0
M  END
> <DATABASE_ID>
HMDB00223

> <DATABASE_NAME>
hmdb

> <SMILES>
OC(=O)CC(=O)C(O)=O

> <INCHI_IDENTIFIER>
InChI=1S/C4H4O5/c5-2(4(8)9)1-3(6)7/h1H2,(H,6,7)(H,8,9)

> <INCHI_KEY>
KHPXUQMNIQBQEV-UHFFFAOYSA-N

> <FORMULA>
C4H4O5

> <MOLECULAR_WEIGHT>
132.0716

> <EXACT_MASS>
132.005873238

> <JCHEM_ACCEPTOR_COUNT>
5

> <JCHEM_AVERAGE_POLARIZABILITY>
10.062860517055825

> <JCHEM_BIOAVAILABILITY>
1

> <JCHEM_DONOR_COUNT>
2

> <JCHEM_FORMAL_CHARGE>
0

> <JCHEM_GHOSE_FILTER>
0

> <JCHEM_IUPAC>
2-oxobutanedioic acid

> <ALOGPS_LOGP>
-0.68

> <JCHEM_LOGP>
-0.0418976006666667

> <ALOGPS_LOGS>
-0.36

> <JCHEM_MDDR_LIKE_RULE>
0

> <JCHEM_NUMBER_OF_RINGS>
0

> <JCHEM_PHYSIOLOGICAL_CHARGE>
-2

> <JCHEM_PKA>
3.5760343878793956

> <JCHEM_PKA_STRONGEST_ACIDIC>
2.4098313234932576

> <JCHEM_PKA_STRONGEST_BASIC>
-9.874004724451435

> <JCHEM_POLAR_SURFACE_AREA>
91.67

> <JCHEM_REFRACTIVITY>
24.333800000000004

> <JCHEM_ROTATABLE_BOND_COUNT>
3

> <JCHEM_RULE_OF_FIVE>
1

> <ALOGPS_SOLUBILITY>
5.71e+01 g/l

> <JCHEM_TRADITIONAL_IUPAC>
oxalacetate

> <JCHEM_VEBER_RULE>
0

> <HMDB_ID>
HMDB00223

> <GENERIC_NAME>
Oxalacetic acid

> <SYNONYMS>
2-Ketosuccinate; 2-Ketosuccinic acid; 2-Oxobutanedioate; 2-Oxobutanedioic acid; 2-Oxosuccinate; 2-Oxosuccinic acid; a-Ketosuccinate; a-Ketosuccinic acid; alpha-Ketosuccinate; alpha-Ketosuccinic acid; Ketosuccinate; Ketosuccinic acid; OAA; Oxalacetate; Oxaloacetate; Oxaloacetic acid; Oxaloethanoate; Oxaloethanoic acid; Oxosuccinate; Oxosuccinic acid

$$$$
