3b-Hydroxy-5-cholenoic acid.mol
  Mrv0541 02231218262D          

 30 33  0  0  0  0            999 V2000
   -2.4539   -2.5401    0.0000 C   0  0  1  0  0  0  0  0  0  0  0  0
   -2.4539   -1.7151    0.0000 C   0  0  0  0  0  0  0  0  0  0  0  0
   -1.7395   -1.3026    0.0000 C   0  0  0  0  0  0  0  0  0  0  0  0
   -1.7395   -2.9526    0.0000 C   0  0  0  0  0  0  0  0  0  0  0  0
   -1.0250   -2.5401    0.0000 C   0  0  0  0  0  0  0  0  0  0  0  0
   -0.3105   -2.9526    0.0000 C   0  0  0  0  0  0  0  0  0  0  0  0
    0.4040   -2.5401    0.0000 C   0  0  0  0  0  0  0  0  0  0  0  0
    0.4040   -1.7151    0.0000 C   0  0  1  0  0  0  0  0  0  0  0  0
    1.1184   -1.3026    0.0000 C   0  0  2  0  0  0  0  0  0  0  0  0
    1.9030   -1.5576    0.0000 C   0  0  0  0  0  0  0  0  0  0  0  0
    2.3880   -0.8901    0.0000 C   0  0  0  0  0  0  0  0  0  0  0  0
    1.9030   -0.2227    0.0000 C   0  0  2  0  0  0  0  0  0  0  0  0
    2.1580    0.5619    0.0000 C   0  0  1  0  0  0  0  0  0  0  0  0
    1.5746    1.1453    0.0000 C   0  0  0  0  0  0  0  0  0  0  0  0
    1.7881    1.9422    0.0000 C   0  0  0  0  0  0  0  0  0  0  0  0
    2.5850    2.1557    0.0000 C   0  0  0  0  0  0  0  0  0  0  0  0
    2.9650    0.7335    0.0000 C   0  0  0  0  0  0  0  0  0  0  0  0
    1.1184   -0.4776    0.0000 C   0  0  2  0  0  0  0  0  0  0  0  0
    1.1184    0.3474    0.0000 C   0  0  0  0  0  0  0  0  0  0  0  0
    0.4040   -0.0651    0.0000 C   0  0  0  0  0  0  0  0  0  0  0  0
   -0.3105   -0.4776    0.0000 C   0  0  0  0  0  0  0  0  0  0  0  0
   -0.3105   -1.3026    0.0000 C   0  0  2  0  0  0  0  0  0  0  0  0
   -1.0250   -1.7151    0.0000 C   0  0  1  0  0  0  0  0  0  0  0  0
   -1.0250   -0.8901    0.0000 C   0  0  0  0  0  0  0  0  0  0  0  0
    2.7986    2.9526    0.0000 O   0  0  0  0  0  0  0  0  0  0  0  0
    3.1684    1.5724    0.0000 O   0  0  0  0  0  0  0  0  0  0  0  0
   -3.1684   -2.9526    0.0000 O   0  0  0  0  0  0  0  0  0  0  0  0
   -0.3105   -2.1276    0.0000 H   0  0  0  0  0  0  0  0  0  0  0  0
    0.4040   -0.8901    0.0000 H   0  0  0  0  0  0  0  0  0  0  0  0
    1.1184   -2.1276    0.0000 H   0  0  0  0  0  0  0  0  0  0  0  0
  1  2  1  0  0  0  0
  2  3  1  0  0  0  0
  1  4  1  0  0  0  0
  4  5  1  0  0  0  0
  5  6  2  0  0  0  0
  6  7  1  0  0  0  0
  7  8  1  0  0  0  0
  8  9  1  0  0  0  0
  9 10  1  0  0  0  0
 10 11  1  0  0  0  0
 12 11  1  1  0  0  0
 12 13  1  0  0  0  0
 13 14  1  0  0  0  0
 14 15  1  0  0  0  0
 15 16  1  0  0  0  0
 13 17  1  1  0  0  0
 12 18  1  0  0  0  0
  9 18  1  0  0  0  0
 18 19  1  1  0  0  0
 18 20  1  0  0  0  0
 20 21  1  0  0  0  0
 21 22  1  0  0  0  0
  8 22  1  0  0  0  0
 22 23  1  0  0  0  0
  3 23  1  0  0  0  0
  5 23  1  0  0  0  0
 23 24  1  1  0  0  0
 16 25  2  0  0  0  0
 16 26  1  0  0  0  0
  1 27  1  1  0  0  0
 22 28  1  6  0  0  0
  8 29  1  1  0  0  0
  9 30  1  6  0  0  0
M  END
> <DATABASE_ID>
HMDB00308

> <DATABASE_NAME>
hmdb

> <SMILES>
[H][C@@]12CC[C@H]([C@H](C)CCC(O)=O)[C@@]1(C)CC[C@@]1([H])[C@@]2([H])CC=C2C[C@@H](O)CC[C@]12C

> <INCHI_IDENTIFIER>
InChI=1S/C24H38O3/c1-15(4-9-22(26)27)19-7-8-20-18-6-5-16-14-17(25)10-12-23(16,2)21(18)11-13-24(19,20)3/h5,15,17-21,25H,4,6-14H2,1-3H3,(H,26,27)/t15-,17+,18+,19-,20+,21+,23+,24-/m1/s1

> <INCHI_KEY>
HIAJCGFYHIANNA-QIZZZRFXSA-N

> <FORMULA>
C24H38O3

> <MOLECULAR_WEIGHT>
374.5567

> <EXACT_MASS>
374.282095082

> <JCHEM_ACCEPTOR_COUNT>
3

> <JCHEM_AVERAGE_POLARIZABILITY>
45.30795603370004

> <JCHEM_BIOAVAILABILITY>
1

> <JCHEM_DONOR_COUNT>
2

> <JCHEM_FORMAL_CHARGE>
0

> <JCHEM_GHOSE_FILTER>
1

> <JCHEM_IUPAC>
(4R)-4-[(1S,2R,5S,10S,11S,14R,15R)-5-hydroxy-2,15-dimethyltetracyclo[8.7.0.0²,⁷.0¹¹,¹⁵]heptadec-7-en-14-yl]pentanoic acid

> <ALOGPS_LOGP>
4.54

> <JCHEM_LOGP>
4.616490839333335

> <ALOGPS_LOGS>
-5.02

> <JCHEM_MDDR_LIKE_RULE>
0

> <JCHEM_NUMBER_OF_RINGS>
4

> <JCHEM_PHYSIOLOGICAL_CHARGE>
-1

> <JCHEM_PKA>
18.20428950550382

> <JCHEM_PKA_STRONGEST_ACIDIC>
4.831011168990334

> <JCHEM_PKA_STRONGEST_BASIC>
-1.3972440270538904

> <JCHEM_POLAR_SURFACE_AREA>
57.53

> <JCHEM_REFRACTIVITY>
108.53129999999996

> <JCHEM_ROTATABLE_BOND_COUNT>
4

> <JCHEM_RULE_OF_FIVE>
1

> <ALOGPS_SOLUBILITY>
3.54e-03 g/l

> <JCHEM_TRADITIONAL_IUPAC>
cholenic acid

> <JCHEM_VEBER_RULE>
0

> <HMDB_ID>
HMDB00308

> <GENERIC_NAME>
3b-Hydroxy-5-cholenoic acid

> <SYNONYMS>
3b-Hydroxy-5-cholenoate; 3b-Hydroxy-5-cholenoic acid; 3b-Hydroxy-chol-5-en-24-oate; 3b-Hydroxy-chol-5-en-24-oic acid; 3b-Hydroxychol-5-en-24-ate; 3b-Hydroxychol-5-en-24-ic acid; 3b-Hydroxychol-5-en-24-oate; 3b-Hydroxychol-5-en-24-oic acid; 3b-Hydroxychol-5-enoate; 3b-Hydroxychol-5-enoic acid; 3b-Hydroxycholenoate; 3b-Hydroxycholenoic acid; 3beta-Hydroxy-5-cholenic acid; 3beta-Hydroxy-5-cholenoate; 3beta-Hydroxy-5-cholenoic acid; 3beta-Hydroxy-chol-5-en-24-oate; 3beta-Hydroxy-chol-5-en-24-oic acid; 3beta-Hydroxy-delta5-cholenic acid; 3beta-Hydroxychol-5-en-24-oate; 3beta-Hydroxychol-5-en-24-oic acid; Cholenate; Cholenic acid; D5-Cholenate; D5-Cholenic acid

$$$$
