
  Mrv0541 02231218172D          

  7  6  0  0  0  0            999 V2000
   18.0690  -10.4198    0.0000 O   0  0  0  0  0  0  0  0  0  0  0  0
   20.2125  -10.8323    0.0000 O   0  0  0  0  0  0  0  0  0  0  0  0
   19.4980   -9.5948    0.0000 O   0  0  0  0  0  0  0  0  0  0  0  0
   18.7835  -11.6573    0.0000 C   0  0  0  0  0  0  0  0  0  0  0  0
   18.7835  -10.8323    0.0000 C   0  0  0  0  0  0  0  0  0  0  0  0
   18.0690  -12.0698    0.0000 C   0  0  0  0  0  0  0  0  0  0  0  0
   19.4980  -10.4198    0.0000 C   0  0  0  0  0  0  0  0  0  0  0  0
  1  5  1  0  0  0  0
  2  7  1  0  0  0  0
  3  7  2  0  0  0  0
  4  5  1  0  0  0  0
  4  6  1  0  0  0  0
  5  7  1  0  0  0  0
M  END
> <DATABASE_ID>
HMDB00008

> <DATABASE_NAME>
hmdb

> <SMILES>
CCC(O)C(O)=O

> <INCHI_IDENTIFIER>
InChI=1S/C4H8O3/c1-2-3(5)4(6)7/h3,5H,2H2,1H3,(H,6,7)

> <INCHI_KEY>
AFENDNXGAFYKQO-UHFFFAOYSA-N

> <FORMULA>
C4H8O3

> <MOLECULAR_WEIGHT>
104.1045

> <EXACT_MASS>
104.047344122

> <JCHEM_ACCEPTOR_COUNT>
3

> <JCHEM_AVERAGE_POLARIZABILITY>
9.975162708419429

> <JCHEM_BIOAVAILABILITY>
1

> <JCHEM_DONOR_COUNT>
2

> <JCHEM_FORMAL_CHARGE>
0

> <JCHEM_GHOSE_FILTER>
0

> <JCHEM_IUPAC>
2-hydroxybutanoic acid

> <ALOGPS_LOGP>
-0.16

> <JCHEM_LOGP>
0.050692876999999914

> <ALOGPS_LOGS>
0.67

> <JCHEM_MDDR_LIKE_RULE>
0

> <JCHEM_NUMBER_OF_RINGS>
0

> <JCHEM_PHYSIOLOGICAL_CHARGE>
-1

> <JCHEM_PKA>
14.293154365104641

> <JCHEM_PKA_STRONGEST_ACIDIC>
3.989998858113875

> <JCHEM_PKA_STRONGEST_BASIC>
-3.7935876935907205

> <JCHEM_POLAR_SURFACE_AREA>
57.53

> <JCHEM_REFRACTIVITY>
23.3638

> <JCHEM_ROTATABLE_BOND_COUNT>
2

> <JCHEM_RULE_OF_FIVE>
1

> <ALOGPS_SOLUBILITY>
4.84e+02 g/l

> <JCHEM_TRADITIONAL_IUPAC>
Î±-hydroxybutyric acid

> <JCHEM_VEBER_RULE>
0

> <HMDB_ID>
HMDB00008

> <GENERIC_NAME>
2-Hydroxybutyric acid

> <SYNONYMS>
(RS)-2-Hydroxybutyrate; (RS)-2-Hydroxybutyric acid; 2-Hydroxy-Butanoate; 2-Hydroxy-Butanoic acid; 2-Hydroxy-DL-Butyrate; 2-Hydroxy-DL-Butyric acid; 2-Hydroxy-N-butyrate; 2-Hydroxy-N-butyric acid; 2-Hydroxybutanoate; 2-Hydroxybutanoic acid; 2-Hydroxybutyrate; a-Hydroxy-N-butyrate; a-Hydroxy-N-butyric acid; a-Hydroxybutanoate; a-Hydroxybutanoic acid; a-Hydroxybutyrate; a-Hydroxybutyric acid; alpha-Hydroxy-N-butyrate; alpha-Hydroxy-N-butyric acid; alpha-Hydroxybutanoate; alpha-Hydroxybutanoic acid; alpha-Hydroxybutyrate; alpha-Hydroxybutyric acid; DL-2-Hydroxybutanoate; DL-2-Hydroxybutanoic acid; DL-a-Hydroxybutyrate; DL-a-Hydroxybutyric acid; DL-alpha-Hydroxybutyrate; DL-alpha-Hydroxybutyric acid

$$$$
