3-Hydroxytetradecanedioic acid.mol
  Mrv0541 02231218302D          

 19 18  0  0  0  0            999 V2000
    3.9296    1.0313    0.0000 C   0  0  0  0  0  0  0  0  0  0  0  0
    3.9296    0.2062    0.0000 C   0  0  0  0  0  0  0  0  0  0  0  0
    3.2151   -0.2062    0.0000 C   0  0  0  0  0  0  0  0  0  0  0  0
    3.2151   -1.0313    0.0000 C   0  0  0  0  0  0  0  0  0  0  0  0
    2.5006   -1.4438    0.0000 C   0  0  0  0  0  0  0  0  0  0  0  0
    1.7862   -1.0313    0.0000 C   0  0  0  0  0  0  0  0  0  0  0  0
    1.0717   -1.4438    0.0000 C   0  0  0  0  0  0  0  0  0  0  0  0
    0.3572   -1.0313    0.0000 C   0  0  0  0  0  0  0  0  0  0  0  0
   -0.3572   -1.4438    0.0000 C   0  0  0  0  0  0  0  0  0  0  0  0
   -1.0717   -1.0313    0.0000 C   0  0  0  0  0  0  0  0  0  0  0  0
   -1.7862   -1.4438    0.0000 C   0  0  0  0  0  0  0  0  0  0  0  0
   -2.5006   -1.0313    0.0000 C   0  0  0  0  0  0  0  0  0  0  0  0
   -3.2151   -1.4438    0.0000 C   0  0  0  0  0  0  0  0  0  0  0  0
   -3.9296   -1.0313    0.0000 C   0  0  0  0  0  0  0  0  0  0  0  0
    3.2151    1.4438    0.0000 O   0  0  0  0  0  0  0  0  0  0  0  0
    4.6441    1.4438    0.0000 O   0  0  0  0  0  0  0  0  0  0  0  0
   -3.9296   -0.2063    0.0000 O   0  0  0  0  0  0  0  0  0  0  0  0
   -4.6441   -1.4438    0.0000 O   0  0  0  0  0  0  0  0  0  0  0  0
    2.5006    0.2062    0.0000 O   0  0  0  0  0  0  0  0  0  0  0  0
  1  2  1  0  0  0  0
  2  3  1  0  0  0  0
  3  4  1  0  0  0  0
  4  5  1  0  0  0  0
  5  6  1  0  0  0  0
  6  7  1  0  0  0  0
  7  8  1  0  0  0  0
  8  9  1  0  0  0  0
  9 10  1  0  0  0  0
 10 11  1  0  0  0  0
 11 12  1  0  0  0  0
 12 13  1  0  0  0  0
 13 14  1  0  0  0  0
  1 15  2  0  0  0  0
  1 16  1  0  0  0  0
 14 17  2  0  0  0  0
 14 18  1  0  0  0  0
  3 19  1  0  0  0  0
M  END
> <DATABASE_ID>
HMDB00394

> <DATABASE_NAME>
hmdb

> <SMILES>
OC(CCCCCCCCCCC(O)=O)CC(O)=O

> <INCHI_IDENTIFIER>
InChI=1S/C14H26O5/c15-12(11-14(18)19)9-7-5-3-1-2-4-6-8-10-13(16)17/h12,15H,1-11H2,(H,16,17)(H,18,19)

> <INCHI_KEY>
CEDZIURHISELSQ-UHFFFAOYSA-N

> <FORMULA>
C14H26O5

> <MOLECULAR_WEIGHT>
274.3532

> <EXACT_MASS>
274.178023942

> <JCHEM_ACCEPTOR_COUNT>
5

> <JCHEM_AVERAGE_POLARIZABILITY>
31.84166844865249

> <JCHEM_BIOAVAILABILITY>
1

> <JCHEM_DONOR_COUNT>
3

> <JCHEM_FORMAL_CHARGE>
0

> <JCHEM_GHOSE_FILTER>
1

> <JCHEM_IUPAC>
3-hydroxytetradecanedioic acid

> <ALOGPS_LOGP>
2.03

> <JCHEM_LOGP>
2.8163926156666674

> <ALOGPS_LOGS>
-2.97

> <JCHEM_MDDR_LIKE_RULE>
0

> <JCHEM_NUMBER_OF_RINGS>
0

> <JCHEM_PHYSIOLOGICAL_CHARGE>
-2

> <JCHEM_PKA>
5.135176336436662

> <JCHEM_PKA_STRONGEST_ACIDIC>
4.488693485812775

> <JCHEM_PKA_STRONGEST_BASIC>
-2.798587426318786

> <JCHEM_POLAR_SURFACE_AREA>
94.83

> <JCHEM_REFRACTIVITY>
71.0625

> <JCHEM_ROTATABLE_BOND_COUNT>
13

> <JCHEM_RULE_OF_FIVE>
1

> <ALOGPS_SOLUBILITY>
2.91e-01 g/l

> <JCHEM_TRADITIONAL_IUPAC>
3-hydroxytetradecanedioic acid

> <JCHEM_VEBER_RULE>
0

> <HMDB_ID>
HMDB00394

> <GENERIC_NAME>
3-Hydroxytetradecanedioic acid

> <SYNONYMS>
3-Hydroxytetradecanedioate; 3-Hydroxytetradecanedioic acid

$$$$
