
  Mrv0541 02231218582D          

 17 16  0  0  0  0            999 V2000
    0.0189    0.1707    0.0000 C   0  0  0  0  0  0  0  0  0  0  0  0
    0.7398   -0.2352    0.0000 C   0  0  0  0  0  0  0  0  0  0  0  0
   -1.1306   -0.2656    0.0000 N   0  0  0  0  0  0  0  0  0  0  0  0
    1.4492    0.1859    0.0000 C   0  0  0  0  0  0  0  0  0  0  0  0
   -1.8476    0.1404    0.0000 C   0  0  0  0  0  0  0  0  0  0  0  0
    2.1700   -0.2200    0.0000 C   0  0  0  0  0  0  0  0  0  0  0  0
   -2.5570   -0.2808    0.0000 C   0  0  0  0  0  0  0  0  0  0  0  0
    3.2171    0.1365    0.0000 N   0  0  0  0  0  0  0  0  0  0  0  0
   -3.2778    0.1252    0.0000 C   0  0  0  0  0  0  0  0  0  0  0  0
    3.9379   -0.2656    0.0000 C   0  0  0  0  0  0  0  0  0  0  0  0
   -3.9872   -0.2960    0.0000 N   0  0  0  0  0  0  0  0  0  0  0  0
    4.6473    0.1556    0.0000 C   0  0  0  0  0  0  0  0  0  0  0  0
   -4.7081    0.1100    0.0000 C   0  0  0  0  0  0  0  0  0  0  0  0
    5.3644   -0.2504    0.0000 C   0  0  0  0  0  0  0  0  0  0  0  0
   -5.4175   -0.3111    0.0000 C   0  0  0  0  0  0  0  0  0  0  0  0
   -4.6929    0.9294    0.0000 O   0  0  0  0  0  0  0  0  0  0  0  0
    6.0776    0.1707    0.0000 N   0  0  0  0  0  0  0  0  0  0  0  0
  1  2  1  0  0  0  0
  1  3  1  0  0  0  0
  2  4  1  0  0  0  0
  3  5  1  0  0  0  0
  4  6  1  0  0  0  0
  5  7  1  0  0  0  0
  6  8  1  0  0  0  0
  7  9  1  0  0  0  0
  8 10  1  0  0  0  0
  9 11  1  0  0  0  0
 10 12  1  0  0  0  0
 11 13  1  0  0  0  0
 12 14  1  0  0  0  0
 13 15  1  0  0  0  0
 13 16  2  0  0  0  0
 14 17  1  0  0  0  0
M  END
> <DATABASE_ID>
HMDB01186

> <DATABASE_NAME>
hmdb

> <SMILES>
CC(=O)NCCCNCCCCNCCCN

> <INCHI_IDENTIFIER>
InChI=1S/C12H28N4O/c1-12(17)16-11-5-10-15-8-3-2-7-14-9-4-6-13/h14-15H,2-11,13H2,1H3,(H,16,17)

> <INCHI_KEY>
GUNURVWAJRRUAV-UHFFFAOYSA-N

> <FORMULA>
C12H28N4O

> <MOLECULAR_WEIGHT>
244.3769

> <EXACT_MASS>
244.226311538

> <JCHEM_ACCEPTOR_COUNT>
4

> <JCHEM_AVERAGE_POLARIZABILITY>
30.67903315891249

> <JCHEM_BIOAVAILABILITY>
1

> <JCHEM_DONOR_COUNT>
4

> <JCHEM_FORMAL_CHARGE>
0

> <JCHEM_GHOSE_FILTER>
0

> <JCHEM_IUPAC>
N-[3-({4-[(3-aminopropyl)amino]butyl}amino)propyl]acetamide

> <ALOGPS_LOGP>
-0.42

> <JCHEM_LOGP>
-1.6351610130000012

> <ALOGPS_LOGS>
-2.82

> <JCHEM_MDDR_LIKE_RULE>
0

> <JCHEM_NUMBER_OF_RINGS>
0

> <JCHEM_PHYSIOLOGICAL_CHARGE>
3

> <JCHEM_PKA_STRONGEST_ACIDIC>
16.295174141263452

> <JCHEM_PKA_STRONGEST_BASIC>
10.969086251800762

> <JCHEM_POLAR_SURFACE_AREA>
79.17999999999999

> <JCHEM_REFRACTIVITY>
72.002

> <JCHEM_ROTATABLE_BOND_COUNT>
12

> <JCHEM_RULE_OF_FIVE>
1

> <ALOGPS_SOLUBILITY>
3.71e-01 g/l

> <JCHEM_TRADITIONAL_IUPAC>
N(1)-acetylspermine

> <JCHEM_VEBER_RULE>
0

> <HMDB_ID>
HMDB01186

> <GENERIC_NAME>
N1-Acetylspermine

> <SYNONYMS>
N'-Acetylspermine; N'-Monoacetylspermine; N(1)-Acetylspermine; N-(3-((4-((3-Aminopropyl)amino)butyl)amino)propyl)-Acetamide; N-Acetylspermine; N1-Acetylspermine

$$$$
