
  Mrv0541 02231217352D          

  8  7  0  0  0  0            999 V2000
    2.0625    0.7145    0.0000 O   0  0  0  0  0  0  0  0  0  0  0  0
    1.2375    0.7145    0.0000 C   0  0  0  0  0  0  0  0  0  0  0  0
    0.8250    1.4289    0.0000 O   0  0  0  0  0  0  0  0  0  0  0  0
    0.8250    0.0000    0.0000 C   0  0  0  0  0  0  0  0  0  0  0  0
    0.0000    0.0000    0.0000 C   0  0  0  0  0  0  0  0  0  0  0  0
   -0.4125   -0.7145    0.0000 C   0  0  0  0  0  0  0  0  0  0  0  0
    0.0000   -1.4289    0.0000 O   0  0  0  0  0  0  0  0  0  0  0  0
   -1.2375   -0.7145    0.0000 O   0  0  0  0  0  0  0  0  0  0  0  0
  1  2  1  0  0  0  0
  2  3  2  0  0  0  0
  2  4  1  0  0  0  0
  4  5  2  0  0  0  0
  5  6  1  0  0  0  0
  6  7  1  0  0  0  0
  6  8  2  0  0  0  0
M  END
> <DATABASE_ID>
HMDB00134

> <DATABASE_NAME>
hmdb

> <SMILES>
OC(=O)\C=C\C(O)=O

> <INCHI_IDENTIFIER>
InChI=1S/C4H4O4/c5-3(6)1-2-4(7)8/h1-2H,(H,5,6)(H,7,8)/b2-1+

> <INCHI_KEY>
VZCYOOQTPOCHFL-OWOJBTEDSA-N

> <FORMULA>
C4H4O4

> <MOLECULAR_WEIGHT>
116.0722

> <EXACT_MASS>
116.010958616

> <JCHEM_ACCEPTOR_COUNT>
4

> <JCHEM_AVERAGE_POLARIZABILITY>
9.352250335598804

> <JCHEM_BIOAVAILABILITY>
1

> <JCHEM_DONOR_COUNT>
2

> <JCHEM_FORMAL_CHARGE>
0

> <JCHEM_GHOSE_FILTER>
0

> <JCHEM_IUPAC>
(2E)-but-2-enedioic acid

> <ALOGPS_LOGP>
0.21

> <JCHEM_LOGP>
-0.040914331333333324

> <ALOGPS_LOGS>
-0.68

> <JCHEM_MDDR_LIKE_RULE>
0

> <JCHEM_NUMBER_OF_RINGS>
0

> <JCHEM_PHYSIOLOGICAL_CHARGE>
-2

> <JCHEM_PKA>
4.412485134930334

> <JCHEM_PKA_STRONGEST_ACIDIC>
3.545732417201611

> <JCHEM_POLAR_SURFACE_AREA>
74.6

> <JCHEM_REFRACTIVITY>
24.607

> <JCHEM_ROTATABLE_BOND_COUNT>
2

> <JCHEM_RULE_OF_FIVE>
1

> <ALOGPS_SOLUBILITY>
2.41e+01 g/l

> <JCHEM_TRADITIONAL_IUPAC>
fumaric acid

> <JCHEM_VEBER_RULE>
0

> <HMDB_ID>
HMDB00134

> <GENERIC_NAME>
Fumaric acid

> <SYNONYMS>
(2E)-But-2-enedioate; (2E)-But-2-enedioic acid; (E)-2-Butenedioate; (E)-2-Butenedioic acid; 2-(E)-Butenedioate; 2-(E)-Butenedioic acid; Allomaleate; Allomaleic acid; Boletate; Boletic acid; FC 33; Fumarate; Fumaric acid; Lichenate; Lichenic acid; Sodium fumarate; trans-1,2-Ethylenedicarboxylate; trans-1,2-Ethylenedicarboxylic acid; trans-2-Butenedioate; trans-2-Butenedioic acid; trans-Butenedioate; trans-Butenedioic acid

$$$$
