
  Mrv0541 02231218452D          

 12 11  0  0  1  0            999 V2000
   22.9672  -19.3420    0.0000 O   0  0  0  0  0  0  0  0  0  0  0  0
   23.6817  -21.4046    0.0000 O   0  0  0  0  0  0  0  0  0  0  0  0
   23.6817  -18.1045    0.0000 O   0  0  0  0  0  0  0  0  0  0  0  0
   22.9672  -20.1670    0.0000 O   0  0  0  0  0  0  0  0  0  0  0  0
   25.8251  -20.1670    0.0000 O   0  0  0  0  0  0  0  0  0  0  0  0
   25.1107  -18.9295    0.0000 N   0  0  0  0  0  0  0  0  0  0  0  0
   24.3962  -19.3420    0.0000 C   0  0  1  0  0  0  0  0  0  0  0  0
   24.3962  -20.1670    0.0000 C   0  0  0  0  0  0  0  0  0  0  0  0
   23.6817  -18.9295    0.0000 C   0  0  0  0  0  0  0  0  0  0  0  0
   23.6817  -20.5795    0.0000 C   0  0  0  0  0  0  0  0  0  0  0  0
   25.8251  -19.3420    0.0000 C   0  0  0  0  0  0  0  0  0  0  0  0
   26.5397  -18.9295    0.0000 C   0  0  0  0  0  0  0  0  0  0  0  0
  1  9  1  0  0  0  0
  2 10  1  0  0  0  0
  3  9  2  0  0  0  0
  4 10  2  0  0  0  0
  5 11  2  0  0  0  0
  7  6  1  1  0  0  0
  6 11  1  0  0  0  0
  7  8  1  0  0  0  0
  7  9  1  0  0  0  0
  8 10  1  0  0  0  0
 11 12  1  0  0  0  0
M  END
> <DATABASE_ID>
HMDB00812

> <DATABASE_NAME>
hmdb

> <SMILES>
CC(=O)N[C@@H](CC(O)=O)C(O)=O

> <INCHI_IDENTIFIER>
InChI=1S/C6H9NO5/c1-3(8)7-4(6(11)12)2-5(9)10/h4H,2H2,1H3,(H,7,8)(H,9,10)(H,11,12)/t4-/m0/s1

> <INCHI_KEY>
OTCCIMWXFLJLIA-BYPYZUCNSA-N

> <FORMULA>
C6H9NO5

> <MOLECULAR_WEIGHT>
175.1394

> <EXACT_MASS>
175.048072403

> <JCHEM_ACCEPTOR_COUNT>
5

> <JCHEM_AVERAGE_POLARIZABILITY>
15.28518958516373

> <JCHEM_BIOAVAILABILITY>
1

> <JCHEM_DONOR_COUNT>
3

> <JCHEM_FORMAL_CHARGE>
0

> <JCHEM_GHOSE_FILTER>
0

> <JCHEM_IUPAC>
(2S)-2-acetamidobutanedioic acid

> <ALOGPS_LOGP>
-0.79

> <JCHEM_LOGP>
-1.4016766216666667

> <ALOGPS_LOGS>
-0.92

> <JCHEM_MDDR_LIKE_RULE>
0

> <JCHEM_NUMBER_OF_RINGS>
0

> <JCHEM_PHYSIOLOGICAL_CHARGE>
-2

> <JCHEM_PKA>
5.333680419586715

> <JCHEM_PKA_STRONGEST_ACIDIC>
3.413040680461098

> <JCHEM_PKA_STRONGEST_BASIC>
-1.4846653534498637

> <JCHEM_POLAR_SURFACE_AREA>
103.69999999999999

> <JCHEM_REFRACTIVITY>
35.9765

> <JCHEM_ROTATABLE_BOND_COUNT>
4

> <JCHEM_RULE_OF_FIVE>
1

> <ALOGPS_SOLUBILITY>
2.11e+01 g/l

> <JCHEM_TRADITIONAL_IUPAC>
acetyl-L-aspartic acid

> <JCHEM_VEBER_RULE>
0

> <HMDB_ID>
HMDB00812

> <GENERIC_NAME>
N-Acetyl-L-aspartic acid

> <SYNONYMS>
(2S)-2-acetamidobutanedioate; (2S)-2-acetamidobutanedioic acid; (S)-2-(acetylamino)butanedioate; (S)-2-(acetylamino)butanedioic acid; (S)-2-(acetylamino)succinic acid; Acetyl-L-aspartate; Acetyl-L-aspartic acid; Acetylaspartate; Acetylaspartic acid; L-N-Acetylaspartate; L-N-Acetylaspartic acid; N-Acetyl-L-aspartate; N-Acetyl-L-aspartic acid; N-Acetyl-S-aspartate; N-Acetyl-S-aspartic acid; N-Acetylaspartate; N-Acetylaspartic acid; NAA

$$$$
