
  Mrv0541 02231220382D          

 10  9  0  0  0  0            999 V2000
   15.7437   -3.4512    0.0000 O   0  0  0  0  0  0  0  0  0  0  0  0
   19.3162   -6.3388    0.0000 O   0  0  0  0  0  0  0  0  0  0  0  0
   17.1728   -3.4512    0.0000 O   0  0  0  0  0  0  0  0  0  0  0  0
   17.8872   -6.3388    0.0000 O   0  0  0  0  0  0  0  0  0  0  0  0
   17.1728   -5.1013    0.0000 C   0  0  0  0  0  0  0  0  0  0  0  0
   17.8872   -4.6887    0.0000 C   0  0  0  0  0  0  0  0  0  0  0  0
   16.4583   -4.6887    0.0000 C   0  0  0  0  0  0  0  0  0  0  0  0
   18.6018   -5.1013    0.0000 C   0  0  0  0  0  0  0  0  0  0  0  0
   16.4583   -3.8637    0.0000 C   0  0  0  0  0  0  0  0  0  0  0  0
   18.6018   -5.9263    0.0000 C   0  0  0  0  0  0  0  0  0  0  0  0
  1  9  1  0  0  0  0
  2 10  1  0  0  0  0
  3  9  2  0  0  0  0
  4 10  2  0  0  0  0
  5  6  1  0  0  0  0
  5  7  2  0  0  0  0
  6  8  2  0  0  0  0
  7  9  1  0  0  0  0
  8 10  1  0  0  0  0
M  END
> <DATABASE_ID>
HMDB06331

> <DATABASE_NAME>
hmdb

> <SMILES>
OC(=O)\C=C/C=C\C(O)=O

> <INCHI_IDENTIFIER>
InChI=1S/C6H6O4/c7-5(8)3-1-2-4-6(9)10/h1-4H,(H,7,8)(H,9,10)/b3-1-,4-2-

> <INCHI_KEY>
TXXHDPDFNKHHGW-CCAGOZQPSA-N

> <FORMULA>
C6H6O4

> <MOLECULAR_WEIGHT>
142.1094

> <EXACT_MASS>
142.02660868

> <JCHEM_ACCEPTOR_COUNT>
4

> <JCHEM_AVERAGE_POLARIZABILITY>
12.581408650720912

> <JCHEM_BIOAVAILABILITY>
1

> <JCHEM_DONOR_COUNT>
2

> <JCHEM_FORMAL_CHARGE>
0

> <JCHEM_GHOSE_FILTER>
0

> <JCHEM_IUPAC>
(2Z,4Z)-hexa-2,4-dienedioic acid

> <ALOGPS_LOGP>
0.67

> <JCHEM_LOGP>
0.486301342

> <ALOGPS_LOGS>
-1.61

> <JCHEM_MDDR_LIKE_RULE>
0

> <JCHEM_NUMBER_OF_RINGS>
0

> <JCHEM_PHYSIOLOGICAL_CHARGE>
-2

> <JCHEM_PKA>
4.654855678562283

> <JCHEM_PKA_STRONGEST_ACIDIC>
3.8717705518676584

> <JCHEM_POLAR_SURFACE_AREA>
74.6

> <JCHEM_REFRACTIVITY>
34.925599999999996

> <JCHEM_ROTATABLE_BOND_COUNT>
3

> <JCHEM_RULE_OF_FIVE>
1

> <ALOGPS_SOLUBILITY>
3.48e+00 g/l

> <JCHEM_TRADITIONAL_IUPAC>
muconic acid

> <JCHEM_VEBER_RULE>
0

> <HMDB_ID>
HMDB06331

> <GENERIC_NAME>
cis,cis-Muconic acid

> <SYNONYMS>
(Z,Z)-2,4-hexadienedioate; (Z,Z)-2,4-hexadienedioic acid; 2,4-Hexadienedioate; 2,4-Hexadienedioic acid; cis,cis-2,4-Hexadienedioate; cis,cis-2,4-Hexadienedioic acid; Cis,cis-hexadienedioate; Cis,cis-hexadienedioic acid; Cis,cis-muconate; Muconic acid

$$$$
