oleanolic acid
  Mrv1572001071617162D          

 33 37  0  0  1  0            999 V2000
   -0.4733   -3.5409    0.0000 C   0  0  0  0  0  0  0  0  0  0  0  0
    0.3020   -3.8230    0.0000 C   0  0  0  0  0  0  0  0  0  0  0  0
    0.4452   -3.0106    0.0000 C   0  0  0  0  0  0  0  0  0  0  0  0
   -0.1105   -4.5375    0.0000 C   0  0  0  0  0  0  0  0  0  0  0  0
    0.3020   -5.2520    0.0000 C   0  0  0  0  0  0  0  0  0  0  0  0
    1.1270   -5.2520    0.0000 C   0  0  2  0  0  0  0  0  0  0  0  0
    1.5395   -5.9664    0.0000 C   0  0  0  0  0  0  0  0  0  0  0  0
    2.3645   -5.9664    0.0000 C   0  0  0  0  0  0  0  0  0  0  0  0
    2.7770   -5.2520    0.0000 C   0  0  2  0  0  0  0  0  0  0  0  0
    3.1895   -5.9664    0.0000 C   0  0  0  0  0  0  0  0  0  0  0  0
    2.3645   -4.5375    0.0000 C   0  0  0  0  0  0  0  0  0  0  0  0
    2.7770   -3.8230    0.0000 C   0  0  0  0  0  0  0  0  0  0  0  0
    3.6020   -3.8230    0.0000 C   0  0  0  0  0  0  0  0  0  0  0  0
    4.0145   -4.5375    0.0000 C   0  0  2  0  0  0  0  0  0  0  0  0
    4.8395   -4.5375    0.0000 C   0  0  1  0  0  0  0  0  0  0  0  0
    4.4270   -3.8230    0.0000 C   0  0  0  0  0  0  0  0  0  0  0  0
    5.2520   -3.8230    0.0000 C   0  0  0  0  0  0  0  0  0  0  0  0
    6.0770   -3.8230    0.0000 C   0  0  0  0  0  0  0  0  0  0  0  0
    6.4895   -4.5375    0.0000 C   0  0  2  0  0  0  0  0  0  0  0  0
    7.3145   -4.5375    0.0000 O   0  0  0  0  0  0  0  0  0  0  0  0
    6.0770   -5.2520    0.0000 C   0  0  0  0  0  0  0  0  0  0  0  0
    6.8522   -5.5341    0.0000 C   0  0  0  0  0  0  0  0  0  0  0  0
    5.9337   -6.0644    0.0000 C   0  0  0  0  0  0  0  0  0  0  0  0
    5.2520   -5.2520    0.0000 C   0  0  2  0  0  0  0  0  0  0  0  0
    4.8395   -5.9664    0.0000 C   0  0  0  0  0  0  0  0  0  0  0  0
    4.0145   -5.9664    0.0000 C   0  0  0  0  0  0  0  0  0  0  0  0
    3.6020   -5.2520    0.0000 C   0  0  1  0  0  0  0  0  0  0  0  0
    3.6882   -6.0725    0.0000 C   0  0  0  0  0  0  0  0  0  0  0  0
    1.5395   -4.5375    0.0000 C   0  0  2  0  0  0  0  0  0  0  0  0
    1.1270   -3.8230    0.0000 C   0  0  0  0  0  0  0  0  0  0  0  0
    0.7145   -5.9664    0.0000 C   0  0  0  0  0  0  0  0  0  0  0  0
    1.1270   -6.6809    0.0000 O   0  0  0  0  0  0  0  0  0  0  0  0
   -0.1105   -5.9664    0.0000 O   0  0  0  0  0  0  0  0  0  0  0  0
  1  2  1  0  0  0  0
  2  3  1  0  0  0  0
  2  4  1  0  0  0  0
  4  5  1  0  0  0  0
  5  6  1  0  0  0  0
  6  7  1  0  0  0  0
  7  8  1  0  0  0  0
  8  9  1  0  0  0  0
  9 10  1  1  0  0  0
  9 11  1  0  0  0  0
 11 12  2  0  0  0  0
 12 13  1  0  0  0  0
 14 13  1  6  0  0  0
 14 15  1  0  0  0  0
 15 16  1  6  0  0  0
 15 17  1  0  0  0  0
 17 18  1  0  0  0  0
 18 19  1  0  0  0  0
 19 20  1  6  0  0  0
 19 21  1  0  0  0  0
 21 22  1  0  0  0  0
 21 23  1  0  0  0  0
 21 24  1  0  0  0  0
 15 24  1  0  0  0  0
 24 25  1  6  0  0  0
 25 26  1  0  0  0  0
 26 27  1  0  0  0  0
  9 27  1  0  0  0  0
 14 27  1  0  0  0  0
 27 28  1  6  0  0  0
 29 11  1  1  0  0  0
  6 29  1  0  0  0  0
 29 30  1  0  0  0  0
  2 30  1  0  0  0  0
  6 31  1  6  0  0  0
 31 32  1  0  0  0  0
 31 33  2  0  0  0  0
M  END
> <DATABASE_ID>
HMDB02364

> <DATABASE_NAME>
hmdb

> <SMILES>
CC1(C)CC[C@@]2(CC[C@]3(C)C(=CC[C@@H]4[C@@]5(C)CC[C@H](O)C(C)(C)[C@@H]5CC[C@@]34C)[C@@H]2C1)C(O)=O

> <INCHI_IDENTIFIER>
InChI=1S/C30H48O3/c1-25(2)14-16-30(24(32)33)17-15-28(6)19(20(30)18-25)8-9-22-27(5)12-11-23(31)26(3,4)21(27)10-13-29(22,28)7/h8,20-23,31H,9-18H2,1-7H3,(H,32,33)/t20-,21-,22+,23-,27-,28+,29+,30-/m0/s1

> <INCHI_KEY>
MIJYXULNPSFWEK-GTOFXWBISA-N

> <FORMULA>
C30H48O3

> <MOLECULAR_WEIGHT>
456.711

> <EXACT_MASS>
456.360345406

> <JCHEM_ACCEPTOR_COUNT>
3

> <JCHEM_ATOM_COUNT>
81

> <JCHEM_AVERAGE_POLARIZABILITY>
54.867786088496075

> <JCHEM_BIOAVAILABILITY>
1

> <JCHEM_DONOR_COUNT>
2

> <JCHEM_FORMAL_CHARGE>
0

> <JCHEM_GHOSE_FILTER>
0

> <JCHEM_IUPAC>
(4aS,6aS,6bR,8aR,10S,12aR,12bR,14bS)-10-hydroxy-2,2,6a,6b,9,9,12a-heptamethyl-1,2,3,4,4a,5,6,6a,6b,7,8,8a,9,10,11,12,12a,12b,13,14b-icosahydropicene-4a-carboxylic acid

> <ALOGPS_LOGP>
7.09

> <JCHEM_LOGP>
6.594833433333333

> <ALOGPS_LOGS>
-5.75

> <JCHEM_MDDR_LIKE_RULE>
0

> <JCHEM_NUMBER_OF_RINGS>
5

> <JCHEM_PHYSIOLOGICAL_CHARGE>
-1

> <JCHEM_PKA>
19.489433291560097

> <JCHEM_PKA_STRONGEST_ACIDIC>
4.744260336518661

> <JCHEM_PKA_STRONGEST_BASIC>
-0.835123022210091

> <JCHEM_POLAR_SURFACE_AREA>
57.53

> <JCHEM_REFRACTIVITY>
133.62449999999998

> <JCHEM_ROTATABLE_BOND_COUNT>
1

> <JCHEM_RULE_OF_FIVE>
0

> <ALOGPS_SOLUBILITY>
8.17e-04 g/l

> <JCHEM_TRADITIONAL_IUPAC>
oleanolic acid

> <JCHEM_VEBER_RULE>
0

> <HMDB_ID>
HMDB02364

> <GENERIC_NAME>
Oleanolic acid

> <SYNONYMS>
(3-beta)-3-Hydroxyolean-12-en-28-oate; (3-beta)-3-Hydroxyolean-12-en-28-oic acid; (3.beta.)-3-beta-hydroxy-Olean-12-en-28-oate; (3.beta.)-3-beta-hydroxy-Olean-12-en-28-oic acid; (3.beta.)-3-hydroxy-Olean-12-en-28-oate; (3.beta.)-3-hydroxy-Olean-12-en-28-oic acid; (4aS,5S,6aS,6bR,8R,8aR,10S,12aR,12bR,14bS)-10-Hydroxy-2,2,6a,6b,9,9,12a-heptamethyl-1,3,4,5,6,6a,6b,7,8,8a,9,10,11,12,12a,12b,13,14b-octadecahydro-2H-picene-4a-carboxylic acid; 3-beta-Hydroxyolean-12-en-28-oate; 3-beta-Hydroxyolean-12-en-28-oic acid; 3.beta.-Hydroxy-Olean-12-en-28-oate; 3.beta.-Hydroxy-Olean-12-en-28-oic acid; 3beta-hydroxy-Olean-12-en-28-oate; 3beta-hydroxy-Olean-12-en-28-oic acid; 3beta-Hydroxyolean-12-en-28-oate; 3beta-Hydroxyolean-12-en-28-oic acid; Astrantiagenin C; Caryophyllin; Giganteumgenin C; Oleanic acid; Virgaureagenin B

$$$$
