HPP
  Mrv0541 02231217152D          

 12 12  0  0  0  0            999 V2000
    0.0203   -0.1980    0.0000 C   0  0  0  0  0  0  0  0  0  0  0  0
    0.0203   -1.0230    0.0000 C   0  0  0  0  0  0  0  0  0  0  0  0
   -0.6941   -1.4355    0.0000 C   0  0  0  0  0  0  0  0  0  0  0  0
   -1.4086   -1.0230    0.0000 C   0  0  0  0  0  0  0  0  0  0  0  0
   -2.1231   -1.4355    0.0000 O   0  0  0  0  0  0  0  0  0  0  0  0
   -1.4086   -0.1980    0.0000 C   0  0  0  0  0  0  0  0  0  0  0  0
   -0.6941    0.2145    0.0000 C   0  0  0  0  0  0  0  0  0  0  0  0
    0.7348    0.2145    0.0000 C   0  0  0  0  0  0  0  0  0  0  0  0
    0.7348    1.0395    0.0000 C   0  0  0  0  0  0  0  0  0  0  0  0
    1.4493    1.4520    0.0000 C   0  0  0  0  0  0  0  0  0  0  0  0
    1.4493    2.2770    0.0000 O   0  0  0  0  0  0  0  0  0  0  0  0
    2.1638    1.0395    0.0000 O   0  0  0  0  0  0  0  0  0  0  0  0
  1  2  2  0  0  0  0
  1  7  1  0  0  0  0
  1  8  1  0  0  0  0
  2  3  1  0  0  0  0
  3  4  2  0  0  0  0
  4  5  1  0  0  0  0
  4  6  1  0  0  0  0
  6  7  2  0  0  0  0
  8  9  1  0  0  0  0
  9 10  1  0  0  0  0
 10 11  2  0  0  0  0
 10 12  1  0  0  0  0
M  END
> <DATABASE_ID>
HMDB02199

> <DATABASE_NAME>
hmdb

> <SMILES>
OC(=O)CCC1=CC=C(O)C=C1

> <INCHI_IDENTIFIER>
InChI=1S/C9H10O3/c10-8-4-1-7(2-5-8)3-6-9(11)12/h1-2,4-5,10H,3,6H2,(H,11,12)

> <INCHI_KEY>
NMHMNPHRMNGLLB-UHFFFAOYSA-N

> <FORMULA>
C9H10O3

> <MOLECULAR_WEIGHT>
166.1739

> <EXACT_MASS>
166.062994186

> <JCHEM_ACCEPTOR_COUNT>
3

> <JCHEM_AVERAGE_POLARIZABILITY>
16.971746796751624

> <JCHEM_BIOAVAILABILITY>
1

> <JCHEM_DONOR_COUNT>
2

> <JCHEM_FORMAL_CHARGE>
0

> <JCHEM_GHOSE_FILTER>
1

> <JCHEM_IUPAC>
3-(4-hydroxyphenyl)propanoic acid

> <ALOGPS_LOGP>
1.15

> <JCHEM_LOGP>
1.7519974486666663

> <ALOGPS_LOGS>
-1.79

> <JCHEM_MDDR_LIKE_RULE>
0

> <JCHEM_NUMBER_OF_RINGS>
1

> <JCHEM_PHYSIOLOGICAL_CHARGE>
-1

> <JCHEM_PKA>
9.50593673911279

> <JCHEM_PKA_STRONGEST_ACIDIC>
4.214213970870649

> <JCHEM_PKA_STRONGEST_BASIC>
-5.958297991799353

> <JCHEM_POLAR_SURFACE_AREA>
57.53

> <JCHEM_REFRACTIVITY>
43.947500000000005

> <JCHEM_ROTATABLE_BOND_COUNT>
3

> <JCHEM_RULE_OF_FIVE>
1

> <ALOGPS_SOLUBILITY>
2.71e+00 g/l

> <JCHEM_TRADITIONAL_IUPAC>
hydroxyphenyl propionic acid

> <JCHEM_VEBER_RULE>
0

> <HMDB_ID>
HMDB02199

> <GENERIC_NAME>
Desaminotyrosine

> <SYNONYMS>
3-(4'-Hydroxyphenyl)-propionate; 3-(4'-Hydroxyphenyl)-propionic acid; 3-(4'-Hydroxyphenyl)propionic acid; 3-(4-Hydroxy-phenyl)-propionate; 3-(4-Hydroxy-phenyl)-propionic acid; 3-(4-Hydroxyphenyl)-propionate; 3-(4-Hydroxyphenyl)-propionic acid; 3-(4-Hydroxyphenyl)propanoate; 3-(4-Hydroxyphenyl)propanoic acid; 3-(4-Hydroxyphenyl)propionate; 3-(4-hydroxyphenyl)propionic acid; 3-(p-Hydroxyphenyl)propionate; 3-(p-Hydroxyphenyl)propionic acid; 3-(Para-Hydroxyphenyl)propionate; 3-(Para-Hydroxyphenyl)propionic acid; 4'-Hydroxyphenylpropionic acid; 4-(4-Hydroxyphenylpropanoate; 4-(4-Hydroxyphenylpropanoic acid; 4-Hydroxy-(9CI)benzenepropanoate; 4-Hydroxy-(9CI)benzenepropanoic acid; 4-Hydroxy-benzenepropanoate; 4-Hydroxy-benzenepropanoic acid; 4-Hydroxybenzenepropanoate; 4-Hydroxybenzenepropanoic acid; 4-Hydroxyphenylpropionate; 4-Hydroxyphenylpropionic acid; b-(p-Hydroxyphenyl)propionate; b-(p-Hydroxyphenyl)propionic acid; beta-(p-Hydroxyphenyl)propionate; beta-(p-Hydroxyphenyl)propionic acid; Dihydro-p-coumarate; Dihydro-p-coumaric acid; Hydro-p-coumarate; Hydro-p-coumaric acid; hydroxy-hydrocinnamic acid; N-Hydroxysuccinimide ester; p-Hydroxy-benzene propionate; p-Hydroxy-benzene propionic acid; p-Hydroxy-hydrocinnamate; p-Hydroxy-hydrocinnamic acid; p-Hydroxyhydrocinnamate; p-Hydroxyhydrocinnamic acid; p-Hydroxyphenylpropionate; p-Hydroxyphenylpropionic acid; Phloretate; Phloretic acid; Phloretinate; Phloretinic acid

$$$$
