5-Dodecenoic acid .mol
  Mrv0541 02231218342D          

 14 13  0  0  0  0            999 V2000
   -0.4594    2.4750    0.0000 C   0  0  0  0  0  0  0  0  0  0  0  0
    0.2551    2.0625    0.0000 C   0  0  0  0  0  0  0  0  0  0  0  0
    0.2551    1.2375    0.0000 C   0  0  0  0  0  0  0  0  0  0  0  0
   -0.4594    0.8250    0.0000 C   0  0  0  0  0  0  0  0  0  0  0  0
   -0.4594    0.0000    0.0000 C   0  0  0  0  0  0  0  0  0  0  0  0
    0.2551   -0.4125    0.0000 C   0  0  0  0  0  0  0  0  0  0  0  0
    0.9696    0.0000    0.0000 C   0  0  0  0  0  0  0  0  0  0  0  0
    1.6841   -0.4125    0.0000 C   0  0  0  0  0  0  0  0  0  0  0  0
    2.3985    0.0000    0.0000 C   0  0  0  0  0  0  0  0  0  0  0  0
    3.1130   -0.4125    0.0000 C   0  0  0  0  0  0  0  0  0  0  0  0
    3.8275    0.0000    0.0000 C   0  0  0  0  0  0  0  0  0  0  0  0
    4.5419   -0.4125    0.0000 C   0  0  0  0  0  0  0  0  0  0  0  0
   -1.1738    2.0625    0.0000 O   0  0  0  0  0  0  0  0  0  0  0  0
   -0.4594    3.3000    0.0000 O   0  0  0  0  0  0  0  0  0  0  0  0
  1  2  1  0  0  0  0
  2  3  1  0  0  0  0
  3  4  1  0  0  0  0
  4  5  1  0  0  0  0
  5  6  2  0  0  0  0
  6  7  1  0  0  0  0
  7  8  1  0  0  0  0
  8  9  1  0  0  0  0
  9 10  1  0  0  0  0
 10 11  1  0  0  0  0
 11 12  1  0  0  0  0
  1 13  2  0  0  0  0
  1 14  1  0  0  0  0
M  END
> <DATABASE_ID>
HMDB00529

> <DATABASE_NAME>
hmdb

> <SMILES>
CCCCCC\C=C/CCCC(O)=O

> <INCHI_IDENTIFIER>
InChI=1S/C12H22O2/c1-2-3-4-5-6-7-8-9-10-11-12(13)14/h7-8H,2-6,9-11H2,1H3,(H,13,14)/b8-7-

> <INCHI_KEY>
IJBFSOLHRKELLR-FPLPWBNLSA-N

> <FORMULA>
C12H22O2

> <MOLECULAR_WEIGHT>
198.3019

> <EXACT_MASS>
198.161979948

> <JCHEM_ACCEPTOR_COUNT>
2

> <JCHEM_AVERAGE_POLARIZABILITY>
24.52761103317846

> <JCHEM_BIOAVAILABILITY>
1

> <JCHEM_DONOR_COUNT>
1

> <JCHEM_FORMAL_CHARGE>
0

> <JCHEM_GHOSE_FILTER>
1

> <JCHEM_IUPAC>
(5Z)-dodec-5-enoic acid

> <ALOGPS_LOGP>
4.76

> <JCHEM_LOGP>
4.116386461

> <ALOGPS_LOGS>
-4.14

> <JCHEM_MDDR_LIKE_RULE>
0

> <JCHEM_NUMBER_OF_RINGS>
0

> <JCHEM_PHYSIOLOGICAL_CHARGE>
-1

> <JCHEM_PKA_STRONGEST_ACIDIC>
4.885676019177561

> <JCHEM_POLAR_SURFACE_AREA>
37.3

> <JCHEM_REFRACTIVITY>
59.7962

> <JCHEM_ROTATABLE_BOND_COUNT>
9

> <JCHEM_RULE_OF_FIVE>
1

> <ALOGPS_SOLUBILITY>
1.45e-02 g/l

> <JCHEM_TRADITIONAL_IUPAC>
cis-5-dodecenoic acid

> <JCHEM_VEBER_RULE>
1

> <HMDB_ID>
HMDB00529

> <GENERIC_NAME>
5-Dodecenoic acid

> <SYNONYMS>
(Z)-5-Dodecenoate; (Z)-5-Dodecenoic acid; 5-Dodecenoate; 5-Dodecenoic acid; cis-5-Dodecenoate; cis-5-Dodecenoic acid

$$$$
