
  Mrv0541 02231219242D          

  7  6  0  0  0  0            999 V2000
   22.1780  -10.0388    0.0000 O   0  0  0  0  0  0  0  0  0  0  0  0
   21.4635   -8.8012    0.0000 O   0  0  0  0  0  0  0  0  0  0  0  0
   20.7491  -10.0388    0.0000 C   0  0  0  0  0  0  0  0  0  0  0  0
   20.0345   -9.6262    0.0000 C   0  0  0  0  0  0  0  0  0  0  0  0
   20.7491  -10.8638    0.0000 C   0  0  0  0  0  0  0  0  0  0  0  0
   19.3200  -10.0388    0.0000 C   0  0  0  0  0  0  0  0  0  0  0  0
   21.4635   -9.6262    0.0000 C   0  0  0  0  0  0  0  0  0  0  0  0
  1  7  1  0  0  0  0
  2  7  2  0  0  0  0
  3  4  1  0  0  0  0
  3  5  1  0  0  0  0
  3  7  1  0  0  0  0
  4  6  1  0  0  0  0
M  END
> <DATABASE_ID>
HMDB02176

> <DATABASE_NAME>
hmdb

> <SMILES>
CCC(C)C(O)=O

> <INCHI_IDENTIFIER>
InChI=1S/C5H10O2/c1-3-4(2)5(6)7/h4H,3H2,1-2H3,(H,6,7)

> <INCHI_KEY>
WLAMNBDJUVNPJU-UHFFFAOYSA-N

> <FORMULA>
C5H10O2

> <MOLECULAR_WEIGHT>
102.1317

> <EXACT_MASS>
102.068079564

> <JCHEM_ACCEPTOR_COUNT>
2

> <JCHEM_AVERAGE_POLARIZABILITY>
10.98492198545561

> <JCHEM_BIOAVAILABILITY>
1

> <JCHEM_DONOR_COUNT>
1

> <JCHEM_FORMAL_CHARGE>
0

> <JCHEM_GHOSE_FILTER>
0

> <JCHEM_IUPAC>
2-methylbutanoic acid

> <ALOGPS_LOGP>
1.47

> <JCHEM_LOGP>
1.464745076

> <ALOGPS_LOGS>
-0.25

> <JCHEM_MDDR_LIKE_RULE>
0

> <JCHEM_NUMBER_OF_RINGS>
0

> <JCHEM_PHYSIOLOGICAL_CHARGE>
-1

> <JCHEM_PKA_STRONGEST_ACIDIC>
4.969194504225091

> <JCHEM_POLAR_SURFACE_AREA>
37.3

> <JCHEM_REFRACTIVITY>
26.446099999999998

> <JCHEM_ROTATABLE_BOND_COUNT>
2

> <JCHEM_RULE_OF_FIVE>
1

> <ALOGPS_SOLUBILITY>
5.72e+01 g/l

> <JCHEM_TRADITIONAL_IUPAC>
(+-)-2-methylbutyrate

> <JCHEM_VEBER_RULE>
1

> <HMDB_ID>
HMDB02176

> <GENERIC_NAME>
Ethylmethylacetic acid

> <SYNONYMS>
(+/-)-2-Methylbutyrate; (+/-)-2-Methylbutyric acid; 2-Ethylpropionate; 2-Ethylpropionic acid; 2-Methyl Butyrate; 2-Methyl Butyric acid; 2-Methylbutanoate; 2-Methylbutanoic acid; D-2-Methyl Butyrate; D-2-Methyl Butyric acid; DL-2-Methy Butyrate; DL-2-Methy Butyric acid; DL-2-Methylbutyrate; DL-2-Methylbutyric acid; Ethylmethylacetate

$$$$
