HMDB03553.mol
  Mrv0541 02231219452D          

 45 48  0  0  0  0            999 V2000
   -4.5250   -0.6179    0.0000 C   0  0  1  0  0  0  0  0  0  0  0  0
   -4.5256   -1.4429    0.0000 C   0  0  2  0  0  0  0  0  0  0  0  0
   -3.8115   -1.8559    0.0000 C   0  0  2  0  0  0  0  0  0  0  0  0
   -3.0962   -1.4438    0.0000 O   0  0  0  0  0  0  0  0  0  0  0  0
   -3.0960   -0.6191    0.0000 C   0  0  1  0  0  0  0  0  0  0  0  0
   -3.8102   -0.2059    0.0000 C   0  0  2  0  0  0  0  0  0  0  0  0
   -1.6667    1.8559    0.0000 C   0  0  1  0  0  0  0  0  0  0  0  0
   -1.6668    1.0309    0.0000 C   0  0  2  0  0  0  0  0  0  0  0  0
   -0.9523    0.6178    0.0000 O   0  0  0  0  0  0  0  0  0  0  0  0
   -0.2378    1.0308    0.0000 C   0  0  1  0  0  0  0  0  0  0  0  0
   -0.2378    1.8558    0.0000 C   0  0  1  0  0  0  0  0  0  0  0  0
   -0.9522    2.2683    0.0000 C   0  0  1  0  0  0  0  0  0  0  0  0
    1.1913   -0.6192    0.0000 C   0  0  2  0  0  0  0  0  0  0  0  0
    1.1922   -1.4442    0.0000 C   0  0  2  0  0  0  0  0  0  0  0  0
    1.9071   -1.8559    0.0000 C   0  0  1  0  0  0  0  0  0  0  0  0
    2.6211   -1.4427    0.0000 C   0  0  2  0  0  0  0  0  0  0  0  0
    2.6203   -0.6177    0.0000 C   0  0  2  0  0  0  0  0  0  0  0  0
    1.9066   -0.2064    0.0000 O   0  0  0  0  0  0  0  0  0  0  0  0
    2.7786    1.4476    0.0000 C   0  0  1  0  0  0  0  0  0  0  0  0
    3.1146    0.6931    0.0000 O   0  0  0  0  0  0  0  0  0  0  0  0
    3.9353    0.7802    0.0000 C   0  0  2  0  0  0  0  0  0  0  0  0
    4.1062    1.5871    0.0000 C   0  0  2  0  0  0  0  0  0  0  0  0
    3.3917    1.9996    0.0000 C   0  0  2  0  0  0  0  0  0  0  0  0
   -5.2395   -0.2054    0.0000 O   0  0  0  0  0  0  0  0  0  0  0  0
   -5.2401   -1.8554    0.0000 O   0  0  0  0  0  0  0  0  0  0  0  0
   -3.8115   -2.6809    0.0000 C   0  0  0  0  0  0  0  0  0  0  0  0
   -2.3813    0.6184    0.0000 C   0  0  0  0  0  0  0  0  0  0  0  0
   -2.3812    2.2684    0.0000 O   0  0  0  0  0  0  0  0  0  0  0  0
   -0.9522    3.0933    0.0000 O   0  0  0  0  0  0  0  0  0  0  0  0
    0.4777   -1.8567    0.0000 O   0  0  0  0  0  0  0  0  0  0  0  0
    3.3356   -1.8552    0.0000 O   0  0  0  0  0  0  0  0  0  0  0  0
    3.3347   -0.2052    0.0000 O   0  0  0  0  0  0  0  0  0  0  0  0
    4.8598    1.9227    0.0000 O   0  0  0  0  0  0  0  0  0  0  0  0
    1.9716    1.6191    0.0000 C   0  0  0  0  0  0  0  0  0  0  0  0
   -3.8102    0.6191    0.0000 O   0  0  0  0  0  0  0  0  0  0  0  0
   -2.3813   -0.2065    0.0000 O   0  0  0  0  0  0  0  0  0  0  0  0
    0.4767    0.6183    0.0000 O   0  0  0  0  0  0  0  0  0  0  0  0
    0.4767    2.2683    0.0000 O   0  0  0  0  0  0  0  0  0  0  0  0
    0.4767   -0.2066    0.0000 C   0  0  0  0  0  0  0  0  0  0  0  0
    3.3917    2.8246    0.0000 O   0  0  0  0  0  0  0  0  0  0  0  0
    1.9071   -2.6809    0.0000 O   0  0  0  0  0  0  0  0  0  0  0  0
    4.7551    0.6942    0.0000 C   0  0  0  0  0  0  0  0  0  0  0  0
    5.2401    1.3616    0.0000 O   0  0  0  0  0  0  0  0  0  0  0  0
    1.9716    2.4441    0.0000 O   0  0  0  0  0  0  0  0  0  0  0  0
   -3.0972   -3.0933    0.0000 O   0  0  0  0  0  0  0  0  0  0  0  0
  1  2  1  0  0  0  0
  2  3  1  0  0  0  0
  3  4  1  0  0  0  0
  4  5  1  0  0  0  0
  5  6  1  0  0  0  0
  6  1  1  0  0  0  0
  7  8  1  0  0  0  0
  8  9  1  0  0  0  0
  9 10  1  0  0  0  0
 10 11  1  0  0  0  0
 11 12  1  0  0  0  0
 12  7  1  0  0  0  0
 13 14  1  0  0  0  0
 14 15  1  0  0  0  0
 15 16  1  0  0  0  0
 16 17  1  0  0  0  0
 17 18  1  0  0  0  0
 18 13  1  0  0  0  0
 19 20  1  0  0  0  0
 20 21  1  0  0  0  0
 21 22  1  0  0  0  0
 22 23  1  0  0  0  0
 23 19  1  0  0  0  0
  1 24  1  6  0  0  0
  2 25  1  6  0  0  0
  3 26  1  6  0  0  0
  8 27  1  6  0  0  0
  7 28  1  6  0  0  0
 12 29  1  6  0  0  0
 14 30  1  6  0  0  0
 16 31  1  6  0  0  0
 17 32  1  6  0  0  0
 21 32  1  6  0  0  0
 22 33  1  6  0  0  0
 19 34  1  6  0  0  0
  6 35  1  1  0  0  0
  5 36  1  1  0  0  0
 10 37  1  1  0  0  0
 11 38  1  1  0  0  0
 13 39  1  1  0  0  0
 23 40  1  1  0  0  0
 15 41  1  1  0  0  0
 27 36  1  0  0  0  0
 39 37  1  0  0  0  0
 21 42  1  1  0  0  0
 42 43  1  0  0  0  0
 34 44  1  0  0  0  0
 26 45  1  0  0  0  0
M  END
> <DATABASE_ID>
HMDB03553

> <DATABASE_NAME>
hmdb

> <SMILES>
OC[C@H]1O[C@@](CO)(O[C@H]2O[C@H](CO[C@H]3O[C@H](CO[C@H]4O[C@H](CO)[C@H](O)[C@H](O)[C@H]4O)[C@H](O)[C@H](O)[C@H]3O)[C@@H](O)[C@H](O)[C@H]2O)[C@@H](O)[C@@H]1O

> <INCHI_IDENTIFIER>
InChI=1S/C24H42O21/c25-1-6-10(28)14(32)17(35)21(41-6)39-3-8-11(29)15(33)18(36)22(42-8)40-4-9-12(30)16(34)19(37)23(43-9)45-24(5-27)20(38)13(31)7(2-26)44-24/h6-23,25-38H,1-5H2/t6-,7-,8-,9-,10+,11+,12-,13-,14+,15+,16+,17-,18-,19-,20+,21+,22+,23-,24+/m1/s1

> <INCHI_KEY>
UQZIYBXSHAGNOE-XNSRJBNMSA-N

> <FORMULA>
C24H42O21

> <MOLECULAR_WEIGHT>
666.5777

> <EXACT_MASS>
666.221858406

> <JCHEM_ACCEPTOR_COUNT>
21

> <JCHEM_AVERAGE_POLARIZABILITY>
61.581105663900516

> <JCHEM_BIOAVAILABILITY>
0

> <JCHEM_DONOR_COUNT>
14

> <JCHEM_FORMAL_CHARGE>
0

> <JCHEM_GHOSE_FILTER>
0

> <JCHEM_IUPAC>
(2R,3R,4S,5S,6R)-2-{[(2S,3S,4S,5R)-3,4-dihydroxy-2,5-bis(hydroxymethyl)oxolan-2-yl]oxy}-6-({[(2S,3R,4S,5R,6R)-3,4,5-trihydroxy-6-({[(2S,3R,4S,5R,6R)-3,4,5-trihydroxy-6-(hydroxymethyl)oxan-2-yl]oxy}methyl)oxan-2-yl]oxy}methyl)oxane-3,4,5-triol

> <ALOGPS_LOGP>
-2.94

> <JCHEM_LOGP>
-8.070506255

> <ALOGPS_LOGS>
-0.21

> <JCHEM_MDDR_LIKE_RULE>
1

> <JCHEM_NUMBER_OF_RINGS>
4

> <JCHEM_PHYSIOLOGICAL_CHARGE>
0

> <JCHEM_PKA>
12.050654679135956

> <JCHEM_PKA_STRONGEST_ACIDIC>
11.625796316968836

> <JCHEM_PKA_STRONGEST_BASIC>
-3.6786130721304886

> <JCHEM_POLAR_SURFACE_AREA>
347.83000000000004

> <JCHEM_REFRACTIVITY>
133.6007

> <JCHEM_ROTATABLE_BOND_COUNT>
11

> <JCHEM_RULE_OF_FIVE>
0

> <ALOGPS_SOLUBILITY>
4.11e+02 g/l

> <JCHEM_TRADITIONAL_IUPAC>
stachyose

> <JCHEM_VEBER_RULE>
0

> <HMDB_ID>
HMDB03553

> <GENERIC_NAME>
Stachyose

> <SYNONYMS>
beta-D-Fructofuranosyl O-alpha-D-galactopyranosyl-(1->6)-O-alpha-D-galactopyranosyl-(1->6)-alpha-D-Glucopyranoside; D-Stachyose 

$$$$
