3-Hydroxysuberic acid.mol
  Mrv0541 02231218272D          

 13 12  0  0  0  0            999 V2000
   -2.5006   -0.2063    0.0000 C   0  0  0  0  0  0  0  0  0  0  0  0
   -1.7862    0.2062    0.0000 C   0  0  0  0  0  0  0  0  0  0  0  0
   -1.0717   -0.2063    0.0000 C   0  0  0  0  0  0  0  0  0  0  0  0
   -0.3572    0.2062    0.0000 C   0  0  0  0  0  0  0  0  0  0  0  0
    0.3572   -0.2063    0.0000 C   0  0  0  0  0  0  0  0  0  0  0  0
    1.0717    0.2062    0.0000 C   0  0  0  0  0  0  0  0  0  0  0  0
    1.7862   -0.2062    0.0000 C   0  0  0  0  0  0  0  0  0  0  0  0
    2.5006    0.2063    0.0000 C   0  0  0  0  0  0  0  0  0  0  0  0
   -2.5006   -1.0313    0.0000 O   0  0  0  0  0  0  0  0  0  0  0  0
   -3.2151    0.2062    0.0000 O   0  0  0  0  0  0  0  0  0  0  0  0
    2.5006    1.0313    0.0000 O   0  0  0  0  0  0  0  0  0  0  0  0
    3.2151   -0.2062    0.0000 O   0  0  0  0  0  0  0  0  0  0  0  0
   -1.0717   -1.0313    0.0000 O   0  0  0  0  0  0  0  0  0  0  0  0
  1  2  1  0  0  0  0
  2  3  1  0  0  0  0
  3  4  1  0  0  0  0
  4  5  1  0  0  0  0
  5  6  1  0  0  0  0
  6  7  1  0  0  0  0
  7  8  1  0  0  0  0
  1  9  2  0  0  0  0
  1 10  1  0  0  0  0
  8 11  2  0  0  0  0
  8 12  1  0  0  0  0
  3 13  1  0  0  0  0
M  END
> <DATABASE_ID>
HMDB00325

> <DATABASE_NAME>
hmdb

> <SMILES>
OC(CCCCC(O)=O)CC(O)=O

> <INCHI_IDENTIFIER>
InChI=1S/C8H14O5/c9-6(5-8(12)13)3-1-2-4-7(10)11/h6,9H,1-5H2,(H,10,11)(H,12,13)

> <INCHI_KEY>
ARJZZFJXSNJKGR-UHFFFAOYSA-N

> <FORMULA>
C8H14O5

> <MOLECULAR_WEIGHT>
190.1938

> <EXACT_MASS>
190.084123558

> <JCHEM_ACCEPTOR_COUNT>
5

> <JCHEM_AVERAGE_POLARIZABILITY>
19.135545855339373

> <JCHEM_BIOAVAILABILITY>
1

> <JCHEM_DONOR_COUNT>
3

> <JCHEM_FORMAL_CHARGE>
0

> <JCHEM_GHOSE_FILTER>
1

> <JCHEM_IUPAC>
3-hydroxyoctanedioic acid

> <ALOGPS_LOGP>
-0.17

> <JCHEM_LOGP>
0.14898062566666642

> <ALOGPS_LOGS>
-0.99

> <JCHEM_MDDR_LIKE_RULE>
0

> <JCHEM_NUMBER_OF_RINGS>
0

> <JCHEM_PHYSIOLOGICAL_CHARGE>
-2

> <JCHEM_PKA>
4.678024185855329

> <JCHEM_PKA_STRONGEST_ACIDIC>
3.9418932515903546

> <JCHEM_PKA_STRONGEST_BASIC>
-2.798595834991789

> <JCHEM_POLAR_SURFACE_AREA>
94.83

> <JCHEM_REFRACTIVITY>
43.4565

> <JCHEM_ROTATABLE_BOND_COUNT>
7

> <JCHEM_RULE_OF_FIVE>
1

> <ALOGPS_SOLUBILITY>
1.95e+01 g/l

> <JCHEM_TRADITIONAL_IUPAC>
3-hydroxysuberic acid

> <JCHEM_VEBER_RULE>
0

> <HMDB_ID>
HMDB00325

> <GENERIC_NAME>
3-Hydroxysuberic acid

> <SYNONYMS>
3-Hydroxyoctanedioate; 3-Hydroxyoctanedioic acid; 3-Hydroxysuberate; 3-Hydroxysuberic acid

$$$$
