HMDB01645_MOL.mol
  Mrv0541 02231218232D          

 10  9  0  0  0  0            999 V2000
    1.4289   -0.2062    0.0000 C   0  0  0  0  0  0  0  0  0  0  0  0
    0.7145    0.2063    0.0000 C   0  0  0  0  0  0  0  0  0  0  0  0
    0.0000   -0.2062    0.0000 C   0  0  0  0  0  0  0  0  0  0  0  0
   -0.7145    0.2062    0.0000 C   0  0  0  0  0  0  0  0  0  0  0  0
   -1.4289   -0.2062    0.0000 C   0  0  0  0  0  0  0  0  0  0  0  0
    1.4289   -1.0313    0.0000 O   0  0  0  0  0  0  0  0  0  0  0  0
    2.1434    0.2062    0.0000 O   0  0  0  0  0  0  0  0  0  0  0  0
   -1.4289   -1.0313    0.0000 O   0  0  0  0  0  0  0  0  0  0  0  0
   -2.1434    0.2062    0.0000 O   0  0  0  0  0  0  0  0  0  0  0  0
    0.7145    1.0313    0.0000 O   0  0  0  0  0  0  0  0  0  0  0  0
  1  2  1  0  0  0  0
  2  3  1  0  0  0  0
  3  4  1  0  0  0  0
  4  5  1  0  0  0  0
  1  6  2  0  0  0  0
  1  7  1  0  0  0  0
  5  8  2  0  0  0  0
  5  9  1  0  0  0  0
  2 10  2  0  0  0  0
M  END
> <DATABASE_ID>
HMDB00208

> <DATABASE_NAME>
hmdb

> <SMILES>
OC(=O)CCC(=O)C(O)=O

> <INCHI_IDENTIFIER>
InChI=1S/C5H6O5/c6-3(5(9)10)1-2-4(7)8/h1-2H2,(H,7,8)(H,9,10)

> <INCHI_KEY>
KPGXRSRHYNQIFN-UHFFFAOYSA-N

> <FORMULA>
C5H6O5

> <MOLECULAR_WEIGHT>
146.0981

> <EXACT_MASS>
146.021523302

> <JCHEM_ACCEPTOR_COUNT>
5

> <JCHEM_AVERAGE_POLARIZABILITY>
12.166536450524555

> <JCHEM_BIOAVAILABILITY>
1

> <JCHEM_DONOR_COUNT>
2

> <JCHEM_FORMAL_CHARGE>
0

> <JCHEM_GHOSE_FILTER>
0

> <JCHEM_IUPAC>
2-oxopentanedioic acid

> <ALOGPS_LOGP>
-0.60

> <JCHEM_LOGP>
-0.1092632996666667

> <ALOGPS_LOGS>
-0.44

> <JCHEM_MDDR_LIKE_RULE>
0

> <JCHEM_NUMBER_OF_RINGS>
0

> <JCHEM_PHYSIOLOGICAL_CHARGE>
-2

> <JCHEM_PKA>
3.866108156790311

> <JCHEM_PKA_STRONGEST_ACIDIC>
2.663960637840807

> <JCHEM_PKA_STRONGEST_BASIC>
-9.667717541536742

> <JCHEM_POLAR_SURFACE_AREA>
91.66999999999999

> <JCHEM_REFRACTIVITY>
28.883000000000003

> <JCHEM_ROTATABLE_BOND_COUNT>
4

> <JCHEM_RULE_OF_FIVE>
1

> <ALOGPS_SOLUBILITY>
5.31e+01 g/l

> <JCHEM_TRADITIONAL_IUPAC>
oxoglutarate

> <JCHEM_VEBER_RULE>
0

> <HMDB_ID>
HMDB00208

> <GENERIC_NAME>
Oxoglutaric acid

> <SYNONYMS>
2-Ketoglutarate; 2-Ketoglutaric acid; 2-Oxo-1,5-pentanedioate; 2-Oxo-1,5-pentanedioic acid; 2-Oxoglutarate; 2-Oxoglutaric acid; 2-Oxopentanedioate; 2-Oxopentanedioic acid; alpha-Ketoglutaric acid; Oxoglutarate

$$$$
