Neopterin.mol
  Mrv0541 02231218462D          

 18 19  0  0  0  0            999 V2000
   -1.6500   -0.7145    0.0000 N   0  0  0  0  0  0  0  0  0  0  0  0
   -2.0625    0.0000    0.0000 C   0  0  0  0  0  0  0  0  0  0  0  0
   -1.6500    0.7145    0.0000 N   0  0  0  0  0  0  0  0  0  0  0  0
   -0.8250    0.7145    0.0000 C   0  0  0  0  0  0  0  0  0  0  0  0
   -0.4125    0.0000    0.0000 C   0  0  0  0  0  0  0  0  0  0  0  0
    0.4125    0.0000    0.0000 N   0  0  0  0  0  0  0  0  0  0  0  0
    0.8250   -0.7145    0.0000 C   0  0  0  0  0  0  0  0  0  0  0  0
    0.4125   -1.4289    0.0000 C   0  0  0  0  0  0  0  0  0  0  0  0
   -0.4125   -1.4289    0.0000 N   0  0  0  0  0  0  0  0  0  0  0  0
   -0.8250   -0.7145    0.0000 C   0  0  0  0  0  0  0  0  0  0  0  0
   -0.4125    1.4289    0.0000 O   0  0  0  0  0  0  0  0  0  0  0  0
    1.6500   -0.7145    0.0000 C   0  0  0  0  0  0  0  0  0  0  0  0
    2.0625    0.0000    0.0000 C   0  0  0  0  0  0  0  0  0  0  0  0
    1.6500    0.7145    0.0000 C   0  0  0  0  0  0  0  0  0  0  0  0
    0.8250    0.7145    0.0000 O   0  0  0  0  0  0  0  0  0  0  0  0
    2.8875    0.0000    0.0000 O   0  0  0  0  0  0  0  0  0  0  0  0
    2.0625   -1.4289    0.0000 O   0  0  0  0  0  0  0  0  0  0  0  0
   -2.8875    0.0000    0.0000 N   0  0  0  0  0  0  0  0  0  0  0  0
  1  2  2  0  0  0  0
  2  3  1  0  0  0  0
  3  4  1  0  0  0  0
  4  5  1  0  0  0  0
  5  6  1  0  0  0  0
  6  7  2  0  0  0  0
  7  8  1  0  0  0  0
  8  9  2  0  0  0  0
  9 10  1  0  0  0  0
  1 10  1  0  0  0  0
  5 10  2  0  0  0  0
  4 11  2  0  0  0  0
 12 13  1  0  0  0  0
 13 14  1  0  0  0  0
 14 15  1  0  0  0  0
 13 16  1  0  0  0  0
 12 17  1  0  0  0  0
  7 12  1  0  0  0  0
  2 18  1  0  0  0  0
M  END
> <DATABASE_ID>
HMDB00845

> <DATABASE_NAME>
hmdb

> <SMILES>
NC1=NC2=C(N=C(C=N2)C(O)C(O)CO)C(=O)N1

> <INCHI_IDENTIFIER>
InChI=1S/C9H11N5O4/c10-9-13-7-5(8(18)14-9)12-3(1-11-7)6(17)4(16)2-15/h1,4,6,15-17H,2H2,(H3,10,11,13,14,18)

> <INCHI_KEY>
BMQYVXCPAOLZOK-UHFFFAOYSA-N

> <FORMULA>
C9H11N5O4

> <MOLECULAR_WEIGHT>
253.2147

> <EXACT_MASS>
253.081103865

> <JCHEM_ACCEPTOR_COUNT>
8

> <JCHEM_AVERAGE_POLARIZABILITY>
23.338909801855824

> <JCHEM_BIOAVAILABILITY>
1

> <JCHEM_DONOR_COUNT>
5

> <JCHEM_FORMAL_CHARGE>
0

> <JCHEM_GHOSE_FILTER>
0

> <JCHEM_IUPAC>
2-amino-6-(1,2,3-trihydroxypropyl)-3,4-dihydropteridin-4-one

> <ALOGPS_LOGP>
-1.75

> <JCHEM_LOGP>
-2.752333907333333

> <ALOGPS_LOGS>
-1.61

> <JCHEM_MDDR_LIKE_RULE>
0

> <JCHEM_NUMBER_OF_RINGS>
2

> <JCHEM_PHYSIOLOGICAL_CHARGE>
0

> <JCHEM_PKA>
12.46121409208778

> <JCHEM_PKA_STRONGEST_ACIDIC>
9.985899075187147

> <JCHEM_PKA_STRONGEST_BASIC>
0.9843914152857309

> <JCHEM_POLAR_SURFACE_AREA>
153.95000000000002

> <JCHEM_REFRACTIVITY>
60.1102

> <JCHEM_ROTATABLE_BOND_COUNT>
3

> <JCHEM_RULE_OF_FIVE>
1

> <ALOGPS_SOLUBILITY>
6.26e+00 g/l

> <JCHEM_TRADITIONAL_IUPAC>
2-amino-6-(1,2,3-trihydroxypropyl)-3H-pteridin-4-one

> <JCHEM_VEBER_RULE>
0

> <HMDB_ID>
HMDB00845

> <GENERIC_NAME>
Neopterin

> <SYNONYMS>
6-(D-Erythro-1,2,3-Trihydroxypropyl)pterin; 6-D-Erythro-Neopterin; D-Erythro-Neopterin; D-Neopterin; Neopterin; Neopterine; [S-(R*,S*)]-2-Amino-6-(1,2,3-trihydroxypropyl)-1H-pteridin-4-on; [S-(R*,S*)]-2-amino-6-(1,2,3-trihydroxypropyl)-1H-pteridin-4-one; [S-(R*,S*)]-2-amino-6-(1,2,3-trihydroxypropyl)-1H-pteridine-4-one

$$$$
