DAO
  Mrv0541 02231216382D          

 14 13  0  0  0  0            999 V2000
   -4.6656    0.2379    0.0000 O   0  0  0  0  0  0  0  0  0  0  0  0
   -3.9511   -0.9997    0.0000 O   0  0  0  0  0  0  0  0  0  0  0  0
   -3.9511   -0.1746    0.0000 C   0  0  0  0  0  0  0  0  0  0  0  0
   -3.2365    0.2379    0.0000 C   0  0  0  0  0  0  0  0  0  0  0  0
   -2.5221   -0.1746    0.0000 C   0  0  0  0  0  0  0  0  0  0  0  0
   -1.8075    0.2379    0.0000 C   0  0  0  0  0  0  0  0  0  0  0  0
   -1.0930   -0.1746    0.0000 C   0  0  0  0  0  0  0  0  0  0  0  0
   -0.3785    0.2379    0.0000 C   0  0  0  0  0  0  0  0  0  0  0  0
    0.3360   -0.1746    0.0000 C   0  0  0  0  0  0  0  0  0  0  0  0
    1.0506    0.2379    0.0000 C   0  0  0  0  0  0  0  0  0  0  0  0
    1.7651   -0.1746    0.0000 C   0  0  0  0  0  0  0  0  0  0  0  0
    2.4796    0.2379    0.0000 C   0  0  0  0  0  0  0  0  0  0  0  0
    3.1941   -0.1746    0.0000 C   0  0  0  0  0  0  0  0  0  0  0  0
    3.9087    0.2379    0.0000 C   0  0  0  0  0  0  0  0  0  0  0  0
  1  3  2  0  0  0  0
  2  3  1  0  0  0  0
  3  4  1  0  0  0  0
  4  5  1  0  0  0  0
  5  6  1  0  0  0  0
  6  7  1  0  0  0  0
  7  8  1  0  0  0  0
  8  9  1  0  0  0  0
  9 10  1  0  0  0  0
 10 11  1  0  0  0  0
 11 12  1  0  0  0  0
 12 13  1  0  0  0  0
 13 14  1  0  0  0  0
M  END
> <DATABASE_ID>
HMDB00638

> <DATABASE_NAME>
hmdb

> <SMILES>
CCCCCCCCCCCC(O)=O

> <INCHI_IDENTIFIER>
InChI=1S/C12H24O2/c1-2-3-4-5-6-7-8-9-10-11-12(13)14/h2-11H2,1H3,(H,13,14)

> <INCHI_KEY>
POULHZVOKOAJMA-UHFFFAOYSA-N

> <FORMULA>
C12H24O2

> <MOLECULAR_WEIGHT>
200.3178

> <EXACT_MASS>
200.177630012

> <JCHEM_ACCEPTOR_COUNT>
2

> <JCHEM_AVERAGE_POLARIZABILITY>
25.846297240499503

> <JCHEM_BIOAVAILABILITY>
1

> <JCHEM_DONOR_COUNT>
1

> <JCHEM_FORMAL_CHARGE>
0

> <JCHEM_GHOSE_FILTER>
1

> <JCHEM_IUPAC>
dodecanoic acid

> <ALOGPS_LOGP>
5.13

> <JCHEM_LOGP>
4.478308117666667

> <ALOGPS_LOGS>
-4.30

> <JCHEM_MDDR_LIKE_RULE>
0

> <JCHEM_NUMBER_OF_RINGS>
0

> <JCHEM_PHYSIOLOGICAL_CHARGE>
-1

> <JCHEM_PKA_STRONGEST_ACIDIC>
4.952019655228562

> <JCHEM_POLAR_SURFACE_AREA>
37.3

> <JCHEM_REFRACTIVITY>
58.67959999999999

> <JCHEM_ROTATABLE_BOND_COUNT>
10

> <JCHEM_RULE_OF_FIVE>
1

> <ALOGPS_SOLUBILITY>
9.97e-03 g/l

> <JCHEM_TRADITIONAL_IUPAC>
lauric acid

> <JCHEM_VEBER_RULE>
1

> <HMDB_ID>
HMDB00638

> <GENERIC_NAME>
Dodecanoic acid

> <SYNONYMS>
1-Undecanecarboxylate; 1-Undecanecarboxylic acid; ABL; Aliphat No. 4; Dodecanoate; Dodecanoic acid; Dodecylate; Dodecylic acid; Edenor C 1298-100; Emery 651; Hystrene 9512; Kortacid 1299; Laurate; Lauric acid; Laurostearate; Laurostearic acid; Lunac L 70; Lunac L 98; N-Dodecanoate; N-Dodecanoic acid; Neo-Fat 12; Neo-Fat 12-43; Nissan NAA 122; Philacid 1200; Prifac 2920; Univol U 314; Vulvate; Vulvic acid

$$$$
