Untitled A4 Document-1
  Mrv0541 02231219402D          

 14 13  0  0  0  0            999 V2000
   -1.7862   -2.2687    0.0000 O   0  0  0  0  0  0  0  0  0  0  0  0
   -1.7862   -1.4437    0.0000 C   0  0  0  0  0  0  0  0  0  0  0  0
   -1.0717   -1.0313    0.0000 C   0  0  0  0  0  0  0  0  0  0  0  0
   -1.0717   -0.2062    0.0000 C   0  0  0  0  0  0  0  0  0  0  0  0
   -0.3572    0.2062    0.0000 C   0  0  0  0  0  0  0  0  0  0  0  0
   -0.3572    1.0313    0.0000 C   0  0  0  0  0  0  0  0  0  0  0  0
    0.3572    1.4437    0.0000 C   0  0  0  0  0  0  0  0  0  0  0  0
    1.0717    1.0313    0.0000 C   0  0  0  0  0  0  0  0  0  0  0  0
    1.7862    1.4437    0.0000 O   0  0  0  0  0  0  0  0  0  0  0  0
    0.3572    2.2687    0.0000 O   0  0  0  0  0  0  0  0  0  0  0  0
   -0.3572   -1.4437    0.0000 O   0  0  0  0  0  0  0  0  0  0  0  0
   -1.7862    0.2062    0.0000 O   0  0  0  0  0  0  0  0  0  0  0  0
   -1.0717    1.4437    0.0000 O   0  0  0  0  0  0  0  0  0  0  0  0
    0.3572   -0.2062    0.0000 O   0  0  0  0  0  0  0  0  0  0  0  0
  1  2  1  0  0  0  0
  2  3  1  0  0  0  0
  3  4  1  0  0  0  0
  4  5  1  0  0  0  0
  5  6  1  0  0  0  0
  6  7  1  0  0  0  0
  8  7  1  0  0  0  0
  8  9  1  0  0  0  0
  7 10  2  0  0  0  0
  3 11  1  0  0  0  0
  4 12  1  0  0  0  0
  6 13  1  0  0  0  0
  5 14  1  0  0  0  0
M  END
> <DATABASE_ID>
HMDB03219

> <DATABASE_NAME>
hmdb

> <SMILES>
OCC(O)C(O)C(O)C(O)C(=O)CO

> <INCHI_IDENTIFIER>
InChI=1S/C7H14O7/c8-1-3(10)5(12)7(14)6(13)4(11)2-9/h3,5-10,12-14H,1-2H2

> <INCHI_KEY>
HSNZZMHEPUFJNZ-UHFFFAOYSA-N

> <FORMULA>
C7H14O7

> <MOLECULAR_WEIGHT>
210.1819

> <EXACT_MASS>
210.073952802

> <JCHEM_ACCEPTOR_COUNT>
7

> <JCHEM_AVERAGE_POLARIZABILITY>
19.00904115480943

> <JCHEM_BIOAVAILABILITY>
1

> <JCHEM_DONOR_COUNT>
6

> <JCHEM_FORMAL_CHARGE>
0

> <JCHEM_GHOSE_FILTER>
0

> <JCHEM_IUPAC>
1,3,4,5,6,7-hexahydroxyheptan-2-one

> <ALOGPS_LOGP>
-2.38

> <JCHEM_LOGP>
-3.8973668339999996

> <ALOGPS_LOGS>
0.03

> <JCHEM_MDDR_LIKE_RULE>
0

> <JCHEM_NUMBER_OF_RINGS>
0

> <JCHEM_PHYSIOLOGICAL_CHARGE>
0

> <JCHEM_PKA>
13.265927956358581

> <JCHEM_PKA_STRONGEST_ACIDIC>
8.913410871547823

> <JCHEM_PKA_STRONGEST_BASIC>
-2.9742199929740236

> <JCHEM_POLAR_SURFACE_AREA>
138.45000000000002

> <JCHEM_REFRACTIVITY>
43.5243

> <JCHEM_ROTATABLE_BOND_COUNT>
6

> <JCHEM_RULE_OF_FIVE>
0

> <ALOGPS_SOLUBILITY>
2.27e+02 g/l

> <JCHEM_TRADITIONAL_IUPAC>
D-manno-heptulose

> <JCHEM_VEBER_RULE>
0

> <HMDB_ID>
HMDB03219

> <GENERIC_NAME>
Sedoheptulose

> <SYNONYMS>
Altro-Heptulose; D-Altro-2-heptulose; D-Altro-hept-2-ulose; Volemulose

$$$$
