
  Mrv0541 02231218482D          

 18 19  0  0  1  0            999 V2000
    8.9249   -8.1597    0.0000 O   0  0  0  0  0  0  0  0  0  0  0  0
    6.8053   -7.9047    0.0000 O   0  0  0  0  0  0  0  0  0  0  0  0
    7.3600   -9.6118    0.0000 O   0  0  0  0  0  0  0  0  0  0  0  0
    9.9754   -9.5256    0.0000 O   0  0  0  0  0  0  0  0  0  0  0  0
    6.8285   -6.8498    0.0000 O   0  0  0  0  0  0  0  0  0  0  0  0
    8.2574   -4.3747    0.0000 O   0  0  0  0  0  0  0  0  0  0  0  0
    8.2574   -6.8498    0.0000 N   0  0  0  0  0  0  0  0  0  0  0  0
    7.5430   -5.6123    0.0000 N   0  0  0  0  0  0  0  0  0  0  0  0
    7.5900   -8.1597    0.0000 C   0  0  2  0  0  0  0  0  0  0  0  0
    7.8449   -8.9443    0.0000 C   0  0  1  0  0  0  0  0  0  0  0  0
    8.2574   -7.6748    0.0000 C   0  0  1  0  0  0  0  0  0  0  0  0
    8.6699   -8.9443    0.0000 C   0  0  1  0  0  0  0  0  0  0  0  0
    9.1549   -9.6118    0.0000 C   0  0  0  0  0  0  0  0  0  0  0  0
    8.9719   -6.4373    0.0000 C   0  0  0  0  0  0  0  0  0  0  0  0
    7.5430   -6.4373    0.0000 C   0  0  0  0  0  0  0  0  0  0  0  0
    8.9719   -5.6123    0.0000 C   0  0  0  0  0  0  0  0  0  0  0  0
    8.2574   -5.1997    0.0000 C   0  0  0  0  0  0  0  0  0  0  0  0
    9.6865   -5.1997    0.0000 C   0  0  0  0  0  0  0  0  0  0  0  0
  1 11  1  0  0  0  0
  1 12  1  0  0  0  0
  9  2  1  1  0  0  0
 10  3  1  1  0  0  0
  4 13  1  0  0  0  0
  5 15  2  0  0  0  0
  6 17  2  0  0  0  0
 11  7  1  6  0  0  0
  7 14  1  0  0  0  0
  7 15  1  0  0  0  0
  8 15  1  0  0  0  0
  8 17  1  0  0  0  0
  9 10  1  0  0  0  0
  9 11  1  0  0  0  0
 10 12  1  0  0  0  0
 12 13  1  6  0  0  0
 14 16  2  0  0  0  0
 16 17  1  0  0  0  0
 16 18  1  0  0  0  0
M  END
> <DATABASE_ID>
HMDB00884

> <DATABASE_NAME>
hmdb

> <SMILES>
CC1=CN([C@@H]2O[C@H](CO)[C@@H](O)[C@H]2O)C(=O)NC1=O

> <INCHI_IDENTIFIER>
InChI=1S/C10H14N2O6/c1-4-2-12(10(17)11-8(4)16)9-7(15)6(14)5(3-13)18-9/h2,5-7,9,13-15H,3H2,1H3,(H,11,16,17)/t5-,6-,7-,9-/m1/s1

> <INCHI_KEY>
DWRXFEITVBNRMK-JXOAFFINSA-N

> <FORMULA>
C10H14N2O6

> <MOLECULAR_WEIGHT>
258.228

> <EXACT_MASS>
258.08518619

> <JCHEM_ACCEPTOR_COUNT>
6

> <JCHEM_AVERAGE_POLARIZABILITY>
24.02359165987002

> <JCHEM_BIOAVAILABILITY>
1

> <JCHEM_DONOR_COUNT>
4

> <JCHEM_FORMAL_CHARGE>
0

> <JCHEM_GHOSE_FILTER>
0

> <JCHEM_IUPAC>
1-[(2R,3R,4S,5R)-3,4-dihydroxy-5-(hydroxymethyl)oxolan-2-yl]-5-methyl-1,2,3,4-tetrahydropyrimidine-2,4-dione

> <ALOGPS_LOGP>
-1.71

> <JCHEM_LOGP>
-2.019691652333333

> <ALOGPS_LOGS>
-0.28

> <JCHEM_MDDR_LIKE_RULE>
0

> <JCHEM_NUMBER_OF_RINGS>
2

> <JCHEM_PHYSIOLOGICAL_CHARGE>
0

> <JCHEM_PKA>
12.620574905993259

> <JCHEM_PKA_STRONGEST_ACIDIC>
9.954822616778223

> <JCHEM_PKA_STRONGEST_BASIC>
-2.9802996399088295

> <JCHEM_POLAR_SURFACE_AREA>
119.33

> <JCHEM_REFRACTIVITY>
56.92269999999999

> <JCHEM_ROTATABLE_BOND_COUNT>
2

> <JCHEM_RULE_OF_FIVE>
1

> <ALOGPS_SOLUBILITY>
1.35e+02 g/l

> <JCHEM_TRADITIONAL_IUPAC>
thymidin

> <JCHEM_VEBER_RULE>
0

> <HMDB_ID>
HMDB00884

> <GENERIC_NAME>
Ribothymidine

> <SYNONYMS>
1-b-D-Ribofuranosylthymine; 1-beta-delta-Ribofuranosylthymine; 5-Methyl-1-beta-D-ribofuranosyl-2,4(1H,3H)-Pyrimidinedione; 5-Methyl-1-beta-delta-ribofuranosyl-2,4(1H,3H)-Pyrimidinedione; 5-Methyl-Uridine; 5-Methyluridine; b-D-Ribofuranoside thymine-1; beta-D-Ribofuranoside; beta-delta-Ribofuranoside; beta-delta-Ribofuranoside thymine-1; Ribosylthymine; Ribothymidine; Thymine ribofuranoside; Thymine ribonucleoside; Thymine riboside; Thymine-1 beta-D-Ribofuranosylthymine; Thymine-1 beta-delta-Ribofuranosylthymine

$$$$
