316
  Mrv0541 02231214352D          

 11 11  0  0  0  0            999 V2000
    2.3645   -2.1409    0.0000 O   0  0  0  0  0  0  0  0  0  0  0  0
    3.7934    1.1591    0.0000 O   0  0  0  0  0  0  0  0  0  0  0  0
    2.3645    1.1591    0.0000 N   0  0  0  0  0  0  0  0  0  0  0  0
    2.3645    0.3341    0.0000 C   0  0  0  0  0  0  0  0  0  0  0  0
    3.0790   -0.0784    0.0000 C   0  0  0  0  0  0  0  0  0  0  0  0
    1.6500   -0.0784    0.0000 C   0  0  0  0  0  0  0  0  0  0  0  0
    3.0790   -0.9034    0.0000 C   0  0  0  0  0  0  0  0  0  0  0  0
    1.6500   -0.9034    0.0000 C   0  0  0  0  0  0  0  0  0  0  0  0
    2.3645   -1.3159    0.0000 C   0  0  0  0  0  0  0  0  0  0  0  0
    3.0790    1.5716    0.0000 C   0  0  0  0  0  0  0  0  0  0  0  0
    3.0790    2.3966    0.0000 C   0  0  0  0  0  0  0  0  0  0  0  0
  1  9  1  0  0  0  0
  2 10  2  0  0  0  0
  3  4  1  0  0  0  0
  3 10  1  0  0  0  0
  4  5  2  0  0  0  0
  4  6  1  0  0  0  0
  5  7  1  0  0  0  0
  6  8  2  0  0  0  0
  7  9  2  0  0  0  0
  8  9  1  0  0  0  0
 10 11  1  0  0  0  0
M  END
> <DATABASE_ID>
HMDB01859

> <DATABASE_NAME>
hmdb

> <SMILES>
CC(=O)NC1=CC=C(O)C=C1

> <INCHI_IDENTIFIER>
InChI=1S/C8H9NO2/c1-6(10)9-7-2-4-8(11)5-3-7/h2-5,11H,1H3,(H,9,10)

> <INCHI_KEY>
RZVAJINKPMORJF-UHFFFAOYSA-N

> <FORMULA>
C8H9NO2

> <MOLECULAR_WEIGHT>
151.1626

> <EXACT_MASS>
151.063328537

> <JCHEM_ACCEPTOR_COUNT>
2

> <JCHEM_AVERAGE_POLARIZABILITY>
15.521685397895368

> <JCHEM_BIOAVAILABILITY>
1

> <JCHEM_DONOR_COUNT>
2

> <JCHEM_FORMAL_CHARGE>
0

> <JCHEM_GHOSE_FILTER>
0

> <JCHEM_IUPAC>
N-(4-hydroxyphenyl)acetamide

> <ALOGPS_LOGP>
0.51

> <JCHEM_LOGP>
0.9073908616666664

> <ALOGPS_LOGS>
-1.56

> <JCHEM_MDDR_LIKE_RULE>
0

> <JCHEM_NUMBER_OF_RINGS>
1

> <JCHEM_PHYSIOLOGICAL_CHARGE>
0

> <JCHEM_PKA>
16.653657748938226

> <JCHEM_PKA_STRONGEST_ACIDIC>
9.464366400804778

> <JCHEM_PKA_STRONGEST_BASIC>
-4.362180897047585

> <JCHEM_POLAR_SURFACE_AREA>
49.33

> <JCHEM_REFRACTIVITY>
42.901900000000005

> <JCHEM_ROTATABLE_BOND_COUNT>
1

> <JCHEM_RULE_OF_FIVE>
1

> <ALOGPS_SOLUBILITY>
4.15e+00 g/l

> <JCHEM_TRADITIONAL_IUPAC>
acetaminophen

> <JCHEM_VEBER_RULE>
0

> <HMDB_ID>
HMDB01859

> <GENERIC_NAME>
Acetaminophen

> <SYNONYMS>
4'-Hydroxyacetanilide; 4-(Acetylamino)phenol; 4-Acetamidophenol; 4-Acetaminophenol; 4-Hydroxyacetanilide; 4-Hydroxyanilid kyseliny octove; A-Per; A.F. Anacin; Abenol; Abensanil; Abrol; Abrolet; Acamol; Accu-Tap; Acenol; Acephen; Acertol; Aceta Elixir; Aceta Tablets; Acetagesic; Acetalgin; Acetaminofen; Acetaminophen; Acetaminophen Uniserts; Acetamol; Acetofen; Actamin; Actamin Extra; Actamin Super; Actifed Plus; Actimol Chewable Tablets; Actimol Children'S Suspension; Actimol Infants' Suspension; Actimol Junior Strength Caplets; Actron; Afebrin; Afebryl; Aferadol; Algesidal; Algina; Algomol; Algotropyl; Allay; alpha-Per; Alpiny; Alpinyl; Alvedon; Amadil; Aminofen; Aminofen Max; Anacin-3; Anacin-3 Extra Strength; Anadin dla dzieci; Anaflon; Analter; Anapap; Andox; Anelix; Anexsia; Anexsia 10/660; Anexsia 5/325; Anexsia 7.5/325; Anexsia 7.5/650; Anhiba; Anoquan; Anti-Algos; Antidol; Apacet; Apacet Capsules; Apacet Elixir; Apacet Extra Strength Caplets; Apacet Extra Strength Tablets; Apacet Regular Strength Tablets; Apadon; Apamid; Apamide; APAP; Apitrelal; Apo-Acetaminophen; Arfen; Asetam; Asomal; Aspac; Aspirin Free Anacin Maximum Strength Caplets; Aspirin Free Anacin Maximum Strength Gel Caplets; Aspirin Free Anacin Maximum Strength Tablets; Aspirin-Free Anacin; Aspirin-Free Excedrin Caplets; Asplin; Atasol Caplets; Atasol Drops; Atasol Forte Caplets; Atasol Forte Tablets; Atasol Oral Solution; Atasol Tablets; Atralidon; Babikan; Bacetamol; Bancap; Bancap Hc; Banesin; Bayer Select Allergy-Sinus; Bayer Select Head Cold; Bayer Select Headache Pain; Bayer Select Maximum Strength Headache Pain Relief Formula; Bayer Select Menstrual Multi-Symptom; Bayer Select Sinus Pain Relief; Ben-u-ron; Benmyo; Bickie-mol; Biocetamol; Bucet; Butalbital; Butapap; Cadafen; Calapol; Calmanticold; Calpol; Capital with Codeine; Captin; Causalon; Cefalex; Cetadol; Children'S Acetaminophen Elixir Drops; Children'S Acetaminophen Oral Solution; Children'S Tylenol Chewable; Claradol Codeine; Clixodyne; Co-Gesic; Cod-Acamol Forte; Codabrol; Codalgin; Codapane; Codicet; Codisal; Codisal Forte; Codoliprane; Codral Pain Relief; Cofamol; Conacetol; Contac Cough & Sore Throat Formula; Contra-Schmerz P; Coricidin; Coricidin D; Coricidin Sinus; Cosutone; Croix Blanche; Cuponol; Curadon; Curpol; Custodial; Dapa X-S; Darocet; Darvocet; Darvocet-N 50; Datril; Datril Extra-Strength; Daygrip; Demilets; Deminofen; Democyl; Demogripal; Desfebre; Dhamol; Dhc Plus; Dial-a-gesic; Dial-alpha-gesic; Dimindol; Dirox; Disprol; Dol-Stop; Dolcor; Dolefin; Dolegrippin; Dolene Ap-65; Dolgesic; Doliprane; Dolko; Dolofugin; Doloreduct; Dolorfug; Dolorol Forte; Dolorstop; Dolotec; Dolprone; Dorocoff; Dresan; Dristan Cold No Drowsiness; Dristancito; Duracetamol; Duradyne Dhc; Durapan; Dymadon; Dymadon Co; Dymadon Forte; Dypap; Ecosetol; Elixodyne; Empracet; Endecon; Enelfa; Eneril; Esgic; Esgic-Plus; Eu-Med; Excedrin; Excedrin Caplets; Excedrin Extra Strength Caplets; Excipain; Exdol; Exdol Strong; Fanalgic; Farmadol; Febranine; Febrectal; Febrectol; Febrex; Febricet; Febridol; Febrilix; Febrin; Febrinol; Febro-Gesic; Febrolin; Femcet; Fendon; Fensum; Fepanil; Feverall Junior Strength; Feverall Sprinkle Caps Junior Strength; Fevor; Finimal; Finiweh; Fioricet; Fluparmol; Fortalidon P; Freka-cetamol; Gattaphen T; Gelocatil; Geluprane; Genapap Children'S Elixir; Genapap Children'S Tablets; Genapap Extra Strength Caplets; Genapap Extra Strength Tablets; Genapap Regular Strength Tablets; Genebs Extra Strength Caplets; Genebs Regular Strength Tablets; Genebs X-Tra; Geralgine-P; Gripin Bebe; Grippostad; Gynospasmine; Hedex; Helon N; Homoolan; Hy-Phen; Hycomine Compound; Hydrocet; Ildamol; Inalgex; Infadrops; Infants' Feverall; Influbene N; Injectapap; Intensin; Janupap; Junior Disprol; Kataprin; Kinder Finimal; Korum; Kratofin simplex; Labamol; Lekadol; Lemgrip; Lemsip; Lestemp; Liquagesic; Liquigesic Co; Liquiprin; Liquiprin Children'S Elixir; Liquiprin Infants" Drops; Lonarid; Lonarid Mono; Lorcet-Hd; Lortab; Lupocet; Lyteca; Lyteca Syrup; Magnidol; Malex N; Malgis; Malidens; Maxadol; Medigesic Plus; Medinol Paediatric; Medocodene; Melabon Infantil; Mexalen; Midol Maximum Strength; Midol PM Night Time Formula; Midol Regular Strength; Midol Teen Formula; Migraleve Yellow; Minafen; Minoset; Miralgin; Momentum; Mono Praecimed; Multin; N-(4-Hydroxyphenyl)acetamide; N-Acetyl-4-aminophenol; N-Acetyl-p-aminophenol; Naldegesic; NAPA; Napafen; Napap; Naprinol; Nealgyl; Nebs; Neo-Fepramol; NeoCitran; Neodol; Neodolito; Neopap; Neotrend; Neuridon; New Cortal for Children; NilnOcen; Nina; No-Febril; Nobedon; Nodolex; Noral; Norcet; Norco; O-Acetaminophenol; Oltyl; Oralgan; Oraphen-PD; Ortensan; Oxycet; Oxycocet; Oxycodone 2.5/Apap 500; Oxycodone 5/Apap 500; p-(Acetylamino)phenol; p-Acetamidophenol; p-Acetaminophenol; p-Acetylaminophenol; p-Hydroxyacetanilide; p-Hydroxyphenolacetamide; Paceco; Pacemo; Pacemol; Pacet; Pacimol; Paedialgon; Paedol; Painex; Paldesic; Pamol; Panacete; Panadeine; Panadeine Co; Panadiene; Panado-Co; Panado-Co Caplets; Panadol; Panadol Extra Strength; Panadol Junior Strength Caplets; Panadol Maximum Strength Caplets; Panadol Maximum Strength Tablets; Panaleve; Panamax; Panasorb; Panasorbe; Panets; Panex; Panodil; Panofen; Pantalgin; Papa-Deine #3; Papa-Deine #4; Para-Suppo; Para-Tabs; Paracemol; Paracenol; Paracet; Paracetamol; Paracetamol AL; Paracetamol Antipanin P; Paracetamol Basics; Paracetamol BC; Paracetamol DC; Paracetamol Dr. Schmidgall; Paracetamol Fecofar; Paracetamol Genericon; Paracetamol Hanseler; Paracetamol Harkley; Paracetamol Heumann; Paracetamol Hexal; Paracetamol Italfarmaco; Paracetamol Nycomed; Paracetamol PB; Paracetamol Raffo; Paracetamol Ratiopharm; Paracetamol Rosch; Paracetamol Saar; Paracetamol SmithKline Beecham; Paracetamol Stada; Paracetamol von ct; Paracetamol Winthrop; Paracetamole; Paracetamolo; Paracetamolum; Paracetanol; Paracetol; Paracin; Paracod; Paracodol; Parador; Paradrops; Parakapton; Parake; Paralen; Paralief; Paralink; Paralyoc; Paramol; Paramolan; Paranox; Parapan; Parasedol; Parasin; Paraspen; Parcetol; Parelan; Parmol; Parogal; Paroma; Pasolind; Pasolind N; PCM Paracetamol Lichtenstein; Pe-Tam; Pediapirin; Pediatrix; Pedric; Percocet; Percocet-5; Percocet-Demi; Percogesic with Codeine; Perdolan Mono; Phenaphen; Phenaphen Caplets; Phenaphen W/Codeine; Phendon; Phenipirin; Phogoglandin; Phrenilin; Phrenilin Forte; Pinex; Piramin; Pirinasol; Plicet; Polmofen; Predimol; Predualito; Prestwick_13; Prodol; Prompt; Prontina; Propacet; Propacet 100; Proval #3; Puernol; Pulmofen; Pyregesic-C; Pyrigesic; Pyrinazine; Pyromed; Quiet World; Redutemp; Reliv; Remedol; Rhinex D-Lay Tablets; Rivalgyl; Robigesic; Robitussin Night Relief; Rockamol Plus; Rounox; Roxicet; Roxicet 5/500; Roxilox; RubieMol; Rubophen; Rupemol; Salzone; Sanicet; Sanicopyrine; Scanol; Scentalgyl; Scherzatabletten Rezeptur 534; Schmerzex; Sedalito; Sedapap; Semolacin; Servigesic; Seskamol; Setakop; Setamol; Setol; Sifenol; Sinaspril; Sine-Off Sinus Medicine Caplets; Sinedol; Sinmol; Sinubid; SK-Apap; Snaplets-FR; Spalt fur die nacht; Spalt N; St Joseph Aspirin-Free; St Joseph Aspirin-Free for Children; St. Joseph Cold Tablets for Children; St. Joseph Fever Reducer; Stanback; Stopain; Sudafed Severe Cold Formula; Sudafed Sinus; Sunetheton; Supac; Supadol mono; Supofen; Suppap; Suppap-120; Suppap-325; Suppap-650; Supramol-M; Synalgos-Dc-A; Tabalgin; Tachiprina; Talacen; Tapanol Extra Strength Caplets; Tapanol Extra Strength Tablets; Tapar; Tavist Allergy/Sinus/Headache; Tazamol; Temlo; Tempanal; Tempra; Tempra Caplets; Tempra Chewable Tablets; Tempra D.S; Tempra Drops; Tempra Syrup; Tencon; Termacet; Termalgin; Termalgine; Termofren; TheraFlu; Tibinide; Tibizide; Tiffy; Tisin; Tisiodrazida; Titralgan; Tizide; Tocris-1706; Toximer P; Tralgon; Treupel mon; Treupel N; Treuphadol; Triad; Triaminic Sore Throat Formula; Triaprin; Tricoton; Tussapap; Tycolet; TYL; Tylenol; Tylenol Allergy Sinus; Tylenol Arthritis Extended Relief; Tylenol Caplets; Tylenol Children'S Chewable Tablets; Tylenol Children'S Elixir; Tylenol Children'S Suspension Liquid; Tylenol Drops; Tylenol Elixir; Tylenol Extra Strength Adult Liquid Pain Reliever; Tylenol Extra Strength Caplets; Tylenol Extra Strength Gelcaps; Tylenol Extra Strength Tablets; Tylenol Gelcaps; Tylenol Infants Drops; Tylenol Infants" Suspension Drops; Tylenol Junior Strength Caplets; Tylenol Junior Strength Chewable Tablets; Tylenol Regular Strength Caplets; Tylenol Regular Strength Tablets; Tylenol Tablets; Tylex; Tylex CD; Tylol; Tylox; Tylox-325; Tymol; Ultracet; Upsanol; Utragin; Valadol; Valgesic; Valorin; Valorin Extra; Vanquish; Veralgina; Vermidon; Verpol; Viclor Richet; Vicodin; Vicodin Es; Vicodin Hp; Vips; Viruflu; Vivimed; Volpan; Wygesic; Zatinol; Zolben

$$$$
