ChEBI
  Mrv0541 04191212142D          

 12 11  0  0  1  0            999 V2000
    4.3754   -2.8827    0.0000 C   0  0  0  0  0  0  0  0  0  0  0  0
    5.0946   -3.2870    0.0000 C   0  0  2  0  0  0  0  0  0  0  0  0
    5.8075   -2.8663    0.0000 C   0  0  2  0  0  0  0  0  0  0  0  0
    6.5267   -3.2705    0.0000 C   0  0  1  0  0  0  0  0  0  0  0  0
    7.2397   -2.8498    0.0000 C   0  0  1  0  0  0  0  0  0  0  0  0
    7.9588   -3.2540    0.0000 C   0  0  0  0  0  0  0  0  0  0  0  0
    3.6748   -3.2962    0.0000 O   0  0  0  0  0  0  0  0  0  0  0  0
    5.1008   -4.1119    0.0000 O   0  0  0  0  0  0  0  0  0  0  0  0
    5.8013   -2.0413    0.0000 O   0  0  0  0  0  0  0  0  0  0  0  0
    6.5329   -4.0955    0.0000 O   0  0  0  0  0  0  0  0  0  0  0  0
    7.2334   -2.0248    0.0000 O   0  0  0  0  0  0  0  0  0  0  0  0
    7.9650   -4.0790    0.0000 O   0  0  0  0  0  0  0  0  0  0  0  0
  7  1  1  0  0  0  0
  2  1  1  0  0  0  0
  2  8  1  6  0  0  0
  3  2  1  0  0  0  0
  3  9  1  1  0  0  0
  4  3  1  0  0  0  0
  4 10  1  1  0  0  0
  5  4  1  0  0  0  0
  5 11  1  6  0  0  0
  6  5  1  0  0  0  0
 12  6  1  0  0  0  0
M  END
> <DATABASE_ID>
HMDB00765

> <DATABASE_NAME>
hmdb

> <SMILES>
OC[C@@H](O)[C@@H](O)[C@H](O)[C@H](O)CO

> <INCHI_IDENTIFIER>
InChI=1S/C6H14O6/c7-1-3(9)5(11)6(12)4(10)2-8/h3-12H,1-2H2/t3-,4-,5-,6-/m1/s1

> <INCHI_KEY>
FBPFZTCFMRRESA-KVTDHHQDSA-N

> <FORMULA>
C6H14O6

> <MOLECULAR_WEIGHT>
182.1718

> <EXACT_MASS>
182.07903818

> <JCHEM_ACCEPTOR_COUNT>
6

> <JCHEM_AVERAGE_POLARIZABILITY>
16.819193636818536

> <JCHEM_BIOAVAILABILITY>
1

> <JCHEM_DONOR_COUNT>
6

> <JCHEM_FORMAL_CHARGE>
0

> <JCHEM_GHOSE_FILTER>
0

> <JCHEM_IUPAC>
(2R,3R,4R,5R)-hexane-1,2,3,4,5,6-hexol

> <ALOGPS_LOGP>
-2.68

> <JCHEM_LOGP>
-3.7300188486666666

> <ALOGPS_LOGS>
0.10

> <JCHEM_MDDR_LIKE_RULE>
0

> <JCHEM_NUMBER_OF_RINGS>
0

> <JCHEM_PHYSIOLOGICAL_CHARGE>
0

> <JCHEM_PKA>
13.37874915684328

> <JCHEM_PKA_STRONGEST_ACIDIC>
12.585200956788803

> <JCHEM_PKA_STRONGEST_BASIC>
-2.974211614825128

> <JCHEM_POLAR_SURFACE_AREA>
121.38000000000001

> <JCHEM_REFRACTIVITY>
38.40359999999999

> <JCHEM_ROTATABLE_BOND_COUNT>
5

> <JCHEM_RULE_OF_FIVE>
0

> <ALOGPS_SOLUBILITY>
2.29e+02 g/l

> <JCHEM_TRADITIONAL_IUPAC>
mannitol

> <JCHEM_VEBER_RULE>
0

> <HMDB_ID>
HMDB00765

> <GENERIC_NAME>
Mannitol

> <SYNONYMS>
1,2,3,4,5,6-Hexanehexol; Cordycepate; Cordycepic acid; D-Mannitol; Diosmol; Hexahydroxyhexane; Hexanhexol; Invenex; Isotol; Manicol; Maniton S; Maniton-S; Manna sugar; Mannazucker; Mannidex; Mannigen; Mannistol; Mannit; Mannit p; Mannite; Mannitol; Mannogem 2080; Marine crystal; Mushroom sugar; Osmitrol; Osmofundin; Osmosal; Resectisol; SDM No. 35

$$$$
