Untitled Document-1
  Mrv0541 02231218232D          

 15 15  0  0  0  0            999 V2000
   -1.4289    0.4125    0.0000 C   0  0  2  0  0  0  0  0  0  0  0  0
   -1.4289   -0.4125    0.0000 C   0  0  1  0  0  0  0  0  0  0  0  0
   -0.7145   -0.8250    0.0000 C   0  0  1  0  0  0  0  0  0  0  0  0
    0.0000   -0.4125    0.0000 C   0  0  2  0  0  0  0  0  0  0  0  0
    0.0000    0.4125    0.0000 C   0  0  2  0  0  0  0  0  0  0  0  0
   -0.7145    0.8250    0.0000 O   0  0  0  0  0  0  0  0  0  0  0  0
   -2.1434    0.8250    0.0000 C   0  0  0  0  0  0  0  0  0  0  0  0
   -2.1434   -0.8250    0.0000 O   0  0  0  0  0  0  0  0  0  0  0  0
   -0.7145   -1.6500    0.0000 O   0  0  0  0  0  0  0  0  0  0  0  0
    0.7145   -0.8250    0.0000 N   0  0  0  0  0  0  0  0  0  0  0  0
    0.7145    0.8250    0.0000 O   0  0  0  0  0  0  0  0  0  0  0  0
    1.4289   -0.4125    0.0000 C   0  0  0  0  0  0  0  0  0  0  0  0
    2.1434   -0.8250    0.0000 C   0  0  0  0  0  0  0  0  0  0  0  0
    1.4289    0.4125    0.0000 O   0  0  0  0  0  0  0  0  0  0  0  0
   -2.1434    1.6500    0.0000 O   0  0  0  0  0  0  0  0  0  0  0  0
  1  2  1  0  0  0  0
  2  3  1  0  0  0  0
  3  4  1  0  0  0  0
  4  5  1  0  0  0  0
  5  6  1  0  0  0  0
  6  1  1  0  0  0  0
  1  7  1  1  0  0  0
  2  8  1  1  0  0  0
  3  9  1  1  0  0  0
  4 10  1  6  0  0  0
  5 11  1  6  0  0  0
 10 12  1  0  0  0  0
 12 13  1  0  0  0  0
 12 14  2  0  0  0  0
  7 15  1  0  0  0  0
M  END
> <DATABASE_ID>
HMDB00212

> <DATABASE_NAME>
hmdb

> <SMILES>
CC(=O)N[C@H]1[C@@H](O)O[C@H](CO)[C@H](O)[C@@H]1O

> <INCHI_IDENTIFIER>
InChI=1S/C8H15NO6/c1-3(11)9-5-7(13)6(12)4(2-10)15-8(5)14/h4-8,10,12-14H,2H2,1H3,(H,9,11)/t4-,5-,6+,7-,8+/m1/s1

> <INCHI_KEY>
OVRNDRQMDRJTHS-CBQIKETKSA-N

> <FORMULA>
C8H15NO6

> <MOLECULAR_WEIGHT>
221.2078

> <EXACT_MASS>
221.089937217

> <JCHEM_ACCEPTOR_COUNT>
6

> <JCHEM_AVERAGE_POLARIZABILITY>
20.843441373258948

> <JCHEM_BIOAVAILABILITY>
1

> <JCHEM_DONOR_COUNT>
5

> <JCHEM_FORMAL_CHARGE>
0

> <JCHEM_GHOSE_FILTER>
0

> <JCHEM_IUPAC>
N-[(2S,3R,4R,5R,6R)-2,4,5-trihydroxy-6-(hydroxymethyl)oxan-3-yl]acetamide

> <ALOGPS_LOGP>
-2.60

> <JCHEM_LOGP>
-3.220574411666667

> <ALOGPS_LOGS>
0.06

> <JCHEM_MDDR_LIKE_RULE>
0

> <JCHEM_NUMBER_OF_RINGS>
1

> <JCHEM_PHYSIOLOGICAL_CHARGE>
0

> <JCHEM_PKA>
12.811681816701025

> <JCHEM_PKA_STRONGEST_ACIDIC>
11.604129514800581

> <JCHEM_PKA_STRONGEST_BASIC>
-0.7815744979932194

> <JCHEM_POLAR_SURFACE_AREA>
119.25000000000001

> <JCHEM_REFRACTIVITY>
47.024699999999996

> <JCHEM_ROTATABLE_BOND_COUNT>
2

> <JCHEM_RULE_OF_FIVE>
1

> <ALOGPS_SOLUBILITY>
2.54e+02 g/l

> <JCHEM_TRADITIONAL_IUPAC>
Î±-GalNAc

> <JCHEM_VEBER_RULE>
0

> <HMDB_ID>
HMDB00212

> <GENERIC_NAME>
N-Acetylgalactosamine

> <SYNONYMS>
2-Acetamido-2-deoxy-a-D-allopyranose; 2-Acetamido-2-deoxy-a-D-glucopyranose; 2-Acetamido-2-deoxy-alpha-D-allopyranose; 2-Acetamido-2-deoxy-alpha-D-glucopyranose; 2-Acetamido-2-deoxy-alpha-delta-allopyranose; 2-Acetamido-2-deoxy-alpha-delta-glucopyranose; 2-Acetamido-2-deoxy-b-D-glucopyranose; 2-Acetamido-2-deoxy-beta-D-glucopyranose; 2-Acetamido-2-deoxy-beta-delta-glucopyranose; 2-Acetamido-2-desoxy-b-D-talofuranose; 2-Acetamido-2-desoxy-beta-D-talofuranose; 2-Acetamido-2-desoxy-beta-delta-talofuranose; 2-Acetamino-2-deoxy-a-D-glucose; 2-Acetamino-2-deoxy-alpha-D-glucose; 2-Acetamino-2-deoxy-alpha-delta-glucose; 2-Acetamino-2-desoxy-a-D-glucopyranose; 2-Acetamino-2-desoxy-alpha-D-glucopyranose; 2-Acetamino-2-desoxy-alpha-delta-glucopyranose; 2-Acetamino-2-desoxy-D-galaktose; 2-Acetamino-2-desoxy-D-glucose; 2-Acetamino-2-desoxy-delta-galaktose; 2-Acetamino-2-desoxy-delta-glucose; 2-Acetylamino-2-deoxy-a-D-galactopyranose; 2-Acetylamino-2-deoxy-a-D-glucopyranose; 2-Acetylamino-2-deoxy-a-D-mannopyranose; 2-Acetylamino-2-deoxy-alpha-D-galactopyranose; 2-Acetylamino-2-deoxy-alpha-D-glucopyranose; 2-Acetylamino-2-deoxy-alpha-D-mannopyranose; 2-Acetylamino-2-deoxy-alpha-delta-galactopyranose; 2-Acetylamino-2-deoxy-alpha-delta-glucopyranose; 2-Acetylamino-2-deoxy-alpha-delta-mannopyranose; 2-Acetylamino-2-deoxy-b-D-allopyranose; 2-Acetylamino-2-deoxy-b-D-altropyranose; 2-Acetylamino-2-deoxy-b-D-galactopyranose; 2-Acetylamino-2-deoxy-b-D-glucopyranose; 2-Acetylamino-2-deoxy-b-D-mannopyranose; 2-Acetylamino-2-deoxy-beta-D-allopyranose; 2-Acetylamino-2-deoxy-beta-D-altropyranose; 2-Acetylamino-2-deoxy-beta-D-galactopyranose; 2-Acetylamino-2-deoxy-beta-D-glucopyranose; 2-Acetylamino-2-deoxy-beta-D-mannopyranose; 2-Acetylamino-2-deoxy-beta-delta-allopyranose; 2-Acetylamino-2-deoxy-beta-delta-altropyranose; 2-Acetylamino-2-deoxy-beta-delta-galactopyranose; 2-Acetylamino-2-deoxy-beta-delta-glucopyranose; 2-Acetylamino-2-deoxy-beta-delta-mannopyranose; 2-Acetylamino-2-desoxy-a-D-galaktose; 2-Acetylamino-2-desoxy-a-D-mannose; 2-Acetylamino-2-desoxy-alpha-D-galaktose; 2-Acetylamino-2-desoxy-alpha-D-mannose; 2-Acetylamino-2-desoxy-alpha-delta-galaktose; 2-Acetylamino-2-desoxy-alpha-delta-mannose; 2-Acetylamino-2-desoxy-b-D-galaktose; 2-Acetylamino-2-desoxy-b-D-mannose; 2-Acetylamino-2-desoxy-beta-D-galaktose; 2-Acetylamino-2-desoxy-beta-D-mannose; 2-Acetylamino-2-desoxy-beta-delta-galaktose; 2-Acetylamino-2-desoxy-beta-delta-mannose; 2-Acetylamino-2-desoxy-D-mannose; 2-Acetylamino-2-desoxy-delta-mannose; 2-Acetylamino-2-desoxy-DL-glucopyranose; 2-Acetylamino-a-D-2-deoxy-galactopyranose; 2-Acetylamino-a-D-2-deoxy-glucopyranose; 2-Acetylamino-a-D-2-deoxy-glucose; 2-Acetylamino-a-D-2-deoxy-mannopyranose; 2-Acetylamino-alpha-D-2-deoxy-galactopyranose; 2-Acetylamino-alpha-D-2-deoxy-glucopyranose; 2-Acetylamino-alpha-D-2-deoxy-glucose; 2-Acetylamino-alpha-D-2-deoxy-mannopyranose; 2-Acetylamino-alpha-delta-2-deoxy-galactopyranose; 2-Acetylamino-alpha-delta-2-deoxy-glucopyranose; 2-Acetylamino-alpha-delta-2-deoxy-glucose; 2-Acetylamino-alpha-delta-2-deoxy-mannopyranose; 2-Acetylamino-b-D-2-deoxy-galactopyranose; 2-Acetylamino-b-D-2-deoxy-glucopyranose; 2-Acetylamino-b-D-2-deoxy-mannopyranose; 2-Acetylamino-beta-D-2-deoxy-galactopyranose; 2-Acetylamino-beta-D-2-deoxy-glucopyranose; 2-Acetylamino-beta-D-2-deoxy-mannopyranose; 2-Acetylamino-beta-delta-2-deoxy-galactopyranose; 2-Acetylamino-beta-delta-2-deoxy-glucopyranose; 2-Acetylamino-beta-delta-2-deoxy-mannopyranose; 2-Acetylamino-D-2-deoxy-galactose; 2-Acetylamino-D-2-deoxy-glucose; 2-Acetylamino-D-2-deoxy-gulose; 2-Acetylamino-D-2-deoxy-idose; 2-Acetylamino-D-2-deoxy-mannose; 2-Acetylamino-D-2-deoxy-talose; 2-Acetylamino-delta-2-deoxy-galactose; 2-Acetylamino-delta-2-deoxy-glucose; 2-Acetylamino-delta-2-deoxy-gulose; 2-Acetylamino-delta-2-deoxy-idose; 2-Acetylamino-delta-2-deoxy-mannose; 2-Acetylamino-delta-2-deoxy-talose; 2-Acetylamino-L-2-deoxy-galactose; 2-Acetylamino-L-2-deoxy-mannose; a-2-Acetamido-2-deoxy-D-galactose; alpha-2-Acetamido-2-deoxy-D-galactose; alpha-2-Acetamido-2-deoxy-delta-galactose; GalNAc; N-(2,4,5-Trihydroxy-6-hydroxymethyl-tetrahydro-pyran-3-yl)-acetamide; N-Acetyl-a-D-glucosamine; N-Acetyl-alpha-D-glucosamine; N-Acetyl-alpha-delta-glucosamine; N-Acetyl-D-allosamine; N-Acetyl-D-galactosamine; N-Acetyl-delta-allosamine; N-Acetyl-delta-galactosamine; N-Acetylgalactosamin; N-Acetylgalactosamine; N-Acetylglucosamin; N-Acetylgluosamin; N-Acetylmannosamin

$$$$
