
  Mrv0541 02231215442D          

 12 12  0  0  0  0            999 V2000
    2.1434    2.0625    0.0000 O   0  0  0  0  0  0  0  0  0  0  0  0
    2.1434    1.2375    0.0000 C   0  0  0  0  0  0  0  0  0  0  0  0
    2.8579    0.8250    0.0000 O   0  0  0  0  0  0  0  0  0  0  0  0
    1.4289    0.8250    0.0000 C   0  0  0  0  0  0  0  0  0  0  0  0
    1.4289    0.0000    0.0000 C   0  0  0  0  0  0  0  0  0  0  0  0
    0.7145   -0.4125    0.0000 C   0  0  0  0  0  0  0  0  0  0  0  0
    0.0000    0.0000    0.0000 C   0  0  0  0  0  0  0  0  0  0  0  0
    0.0000    0.8250    0.0000 N   0  0  0  0  0  0  0  0  0  0  0  0
    0.7145    1.2375    0.0000 C   0  0  0  0  0  0  0  0  0  0  0  0
    0.7145    2.0625    0.0000 C   0  0  0  0  0  0  0  0  0  0  0  0
    1.4289    2.4750    0.0000 O   0  0  0  0  0  0  0  0  0  0  0  0
    0.0000    2.4750    0.0000 O   0  0  0  0  0  0  0  0  0  0  0  0
  1  2  1  0  0  0  0
  2  3  2  0  0  0  0
  2  4  1  0  0  0  0
  4  5  2  0  0  0  0
  5  6  1  0  0  0  0
  6  7  2  0  0  0  0
  7  8  1  0  0  0  0
  8  9  2  0  0  0  0
  4  9  1  0  0  0  0
  9 10  1  0  0  0  0
 10 11  1  0  0  0  0
 10 12  2  0  0  0  0
M  END
> <DATABASE_ID>
HMDB00232

> <DATABASE_NAME>
hmdb

> <SMILES>
OC(=O)C1=CC=CN=C1C(O)=O

> <INCHI_IDENTIFIER>
InChI=1S/C7H5NO4/c9-6(10)4-2-1-3-8-5(4)7(11)12/h1-3H,(H,9,10)(H,11,12)

> <INCHI_KEY>
GJAWHXHKYYXBSV-UHFFFAOYSA-N

> <FORMULA>
C7H5NO4

> <MOLECULAR_WEIGHT>
167.1189

> <EXACT_MASS>
167.021857653

> <JCHEM_ACCEPTOR_COUNT>
5

> <JCHEM_AVERAGE_POLARIZABILITY>
14.340881634809179

> <JCHEM_BIOAVAILABILITY>
1

> <JCHEM_DONOR_COUNT>
2

> <JCHEM_FORMAL_CHARGE>
0

> <JCHEM_GHOSE_FILTER>
0

> <JCHEM_IUPAC>
pyridine-2,3-dicarboxylic acid

> <ALOGPS_LOGP>
0.15

> <JCHEM_LOGP>
-0.5431572445886471

> <ALOGPS_LOGS>
-1.61

> <JCHEM_MDDR_LIKE_RULE>
0

> <JCHEM_NUMBER_OF_RINGS>
1

> <JCHEM_PHYSIOLOGICAL_CHARGE>
-2

> <JCHEM_PKA>
3.88729404846235

> <JCHEM_PKA_STRONGEST_ACIDIC>
0.2932245059395324

> <JCHEM_PKA_STRONGEST_BASIC>
5.258386966374333

> <JCHEM_POLAR_SURFACE_AREA>
87.49000000000001

> <JCHEM_REFRACTIVITY>
38.0415

> <JCHEM_ROTATABLE_BOND_COUNT>
2

> <JCHEM_RULE_OF_FIVE>
1

> <ALOGPS_SOLUBILITY>
4.07e+00 g/l

> <JCHEM_TRADITIONAL_IUPAC>
quinolinic acid

> <JCHEM_VEBER_RULE>
0

> <HMDB_ID>
HMDB00232

> <GENERIC_NAME>
Quinolinic acid

> <SYNONYMS>
2,3-Pyridinedicarboxylate; 2,3-Pyridinedicarboxylic acid; 3,4-Pyridinedicarboxylic acid; Pyridin-2,3-dicarbonsaeure; Pyridine-2,3-carboxylate; Pyridine-2,3-dicarboxylate; Pyridine-2,3-dicarboxylic acid; Pyridine-3,4-dicarboxylic acid; Quinolinate; Quinolinic acid

$$$$
