
  Mrv0541 02231218172D          

 27 30  0  0  1  0            999 V2000
    0.8774   -0.1720    0.0000 C   0  0  1  0  0  0  0  0  0  0  0  0
    0.1618   -0.5747    0.0000 C   0  0  1  0  0  0  0  0  0  0  0  0
    0.8878    0.6538    0.0000 C   0  0  1  0  0  0  0  0  0  0  0  0
    1.6585   -0.4370    0.0000 C   0  0  0  0  0  0  0  0  0  0  0  0
   -0.5505   -0.1583    0.0000 C   0  0  1  0  0  0  0  0  0  0  0  0
    0.1618   -1.4004    0.0000 C   0  0  0  0  0  0  0  0  0  0  0  0
    1.6757    0.9015    0.0000 C   0  0  2  0  0  0  0  0  0  0  0  0
    0.1755    1.0736    0.0000 C   0  0  0  0  0  0  0  0  0  0  0  0
    1.0976    1.4521    0.0000 C   0  0  0  0  0  0  0  0  0  0  0  0
    2.1506    0.2271    0.0000 C   0  0  0  0  0  0  0  0  0  0  0  0
   -1.2663   -0.5678    0.0000 C   0  0  2  0  0  0  0  0  0  0  0  0
   -0.5436    0.6641    0.0000 C   0  0  0  0  0  0  0  0  0  0  0  0
   -0.5574   -1.8133    0.0000 C   0  0  0  0  0  0  0  0  0  0  0  0
    1.9406    1.6792    0.0000 C   0  0  0  0  0  0  0  0  0  0  0  0
   -1.2697   -1.3970    0.0000 C   0  0  0  0  0  0  0  0  0  0  0  0
   -1.9819   -0.1583    0.0000 C   0  0  0  0  0  0  0  0  0  0  0  0
   -1.2765    0.2547    0.0000 C   0  0  0  0  0  0  0  0  0  0  0  0
    2.7493    1.8408    0.0000 C   0  0  0  0  0  0  0  0  0  0  0  0
    1.4004    2.2984    0.0000 O   0  0  0  0  0  0  0  0  0  0  0  0
   -1.9819   -1.8133    0.0000 C   0  0  0  0  0  0  0  0  0  0  0  0
   -2.6976   -0.5678    0.0000 C   0  0  0  0  0  0  0  0  0  0  0  0
    3.2929    1.2215    0.0000 O   0  0  0  0  0  0  0  0  0  0  0  0
   -2.6976   -1.3970    0.0000 C   0  0  0  0  0  0  0  0  0  0  0  0
   -3.4133   -1.8133    0.0000 O   0  0  0  0  0  0  0  0  0  0  0  0
    0.8705   -0.9910    0.0000 H   0  0  0  0  0  0  0  0  0  0  0  0
   -0.0447    0.2202    0.0000 H   0  0  0  0  0  0  0  0  0  0  0  0
   -0.5574   -0.9807    0.0000 H   0  0  0  0  0  0  0  0  0  0  0  0
  1  2  1  0  0  0  0
  1  3  1  0  0  0  0
  1  4  1  0  0  0  0
  2  5  1  0  0  0  0
  2  6  1  0  0  0  0
  3  7  1  0  0  0  0
  3  8  1  0  0  0  0
  3  9  1  1  0  0  0
  4 10  1  0  0  0  0
  5 11  1  0  0  0  0
  5 12  1  0  0  0  0
  6 13  1  0  0  0  0
  7 14  1  1  0  0  0
 11 15  1  0  0  0  0
 11 16  1  0  0  0  0
 11 17  1  1  0  0  0
 14 18  1  0  0  0  0
 14 19  2  0  0  0  0
 15 20  2  0  0  0  0
 16 21  1  0  0  0  0
 18 22  1  0  0  0  0
 20 23  1  0  0  0  0
 23 24  2  0  0  0  0
  7 10  1  0  0  0  0
  8 12  1  0  0  0  0
 13 15  1  0  0  0  0
 21 23  1  0  0  0  0
  1 25  1  6  0  0  0
  2 26  1  1  0  0  0
  5 27  1  6  0  0  0
M  END
> <DATABASE_ID>
HMDB00016

> <DATABASE_NAME>
hmdb

> <SMILES>
[H][C@@]12CC[C@H](C(=O)CO)[C@@]1(C)CC[C@@]1([H])[C@@]2([H])CCC2=CC(=O)CC[C@]12C

> <INCHI_IDENTIFIER>
InChI=1S/C21H30O3/c1-20-9-7-14(23)11-13(20)3-4-15-16-5-6-18(19(24)12-22)21(16,2)10-8-17(15)20/h11,15-18,22H,3-10,12H2,1-2H3/t15-,16-,17-,18+,20-,21-/m0/s1

> <INCHI_KEY>
ZESRJSPZRDMNHY-YFWFAHHUSA-N

> <FORMULA>
C21H30O3

> <MOLECULAR_WEIGHT>
330.4611

> <EXACT_MASS>
330.219494826

> <JCHEM_ACCEPTOR_COUNT>
3

> <JCHEM_AVERAGE_POLARIZABILITY>
38.18675083883753

> <JCHEM_BIOAVAILABILITY>
1

> <JCHEM_DONOR_COUNT>
1

> <JCHEM_FORMAL_CHARGE>
0

> <JCHEM_GHOSE_FILTER>
1

> <JCHEM_IUPAC>
(1S,2R,10S,11S,14S,15S)-14-(2-hydroxyacetyl)-2,15-dimethyltetracyclo[8.7.0.0²,⁷.0¹¹,¹⁵]heptadec-6-en-5-one

> <ALOGPS_LOGP>
3.10

> <JCHEM_LOGP>
3.3313563546666676

> <ALOGPS_LOGS>
-4.30

> <JCHEM_MDDR_LIKE_RULE>
0

> <JCHEM_NUMBER_OF_RINGS>
4

> <JCHEM_PHYSIOLOGICAL_CHARGE>
0

> <JCHEM_PKA>
19.087225406758208

> <JCHEM_PKA_STRONGEST_ACIDIC>
13.864723909946662

> <JCHEM_PKA_STRONGEST_BASIC>
-3.295317874239208

> <JCHEM_POLAR_SURFACE_AREA>
54.37

> <JCHEM_REFRACTIVITY>
94.40749999999997

> <JCHEM_ROTATABLE_BOND_COUNT>
2

> <JCHEM_RULE_OF_FIVE>
1

> <ALOGPS_SOLUBILITY>
1.67e-02 g/l

> <JCHEM_TRADITIONAL_IUPAC>
11-deoxycorticosterone

> <JCHEM_VEBER_RULE>
0

> <HMDB_ID>
HMDB00016

> <GENERIC_NAME>
Deoxycorticosterone

> <SYNONYMS>
11-Dehydroxycorticosterone; 11-Deoxy-Corticosterone; 11-Deoxycorticosterone; 11-Desoxycorticosterone; 21-Hydroxy-3,20-dioxopregn-4-ene; 21-Hydroxy-D4-pregnane-3,20-dione; 21-Hydroxy-D4-pregnene-3,20-dione; 21-Hydroxy-Pregn-4-ene-3,20-dione; 21-Hydroxy-Progesterone; 21-Hydroxypregn-4-ene-3,20-dione; 21-Hydroxyprogesterone; 4-Pregnen-21-ol-3,20-dione; Cortexone; D4-Pregnene-21-ol-3,20-dione; Deoxycortone; Desoxycorticosterone; Desoxycortone; DOC; Doca; Kendall'S desoxy compound B; Reichstein'S substance Q

$$$$
