Caproic acid.mol
  Mrv0541 02231218342D          

  8  7  0  0  0  0            999 V2000
    1.0313    0.0000    0.0000 C   0  0  0  0  0  0  0  0  0  0  0  0
    0.6188   -0.7145    0.0000 C   0  0  0  0  0  0  0  0  0  0  0  0
   -0.2062   -0.7145    0.0000 C   0  0  0  0  0  0  0  0  0  0  0  0
   -0.6188    0.0000    0.0000 C   0  0  0  0  0  0  0  0  0  0  0  0
   -1.4438    0.0000    0.0000 C   0  0  0  0  0  0  0  0  0  0  0  0
   -1.8563    0.7145    0.0000 C   0  0  0  0  0  0  0  0  0  0  0  0
    0.6188    0.7145    0.0000 O   0  0  0  0  0  0  0  0  0  0  0  0
    1.8563    0.0000    0.0000 O   0  0  0  0  0  0  0  0  0  0  0  0
  1  2  1  0  0  0  0
  2  3  1  0  0  0  0
  3  4  1  0  0  0  0
  4  5  1  0  0  0  0
  5  6  1  0  0  0  0
  1  7  2  0  0  0  0
  1  8  1  0  0  0  0
M  END
> <DATABASE_ID>
HMDB00535

> <DATABASE_NAME>
hmdb

> <SMILES>
CCCCCC(O)=O

> <INCHI_IDENTIFIER>
InChI=1S/C6H12O2/c1-2-3-4-5-6(7)8/h2-5H2,1H3,(H,7,8)

> <INCHI_KEY>
FUZZWVXGSFPDMH-UHFFFAOYSA-N

> <FORMULA>
C6H12O2

> <MOLECULAR_WEIGHT>
116.1583

> <EXACT_MASS>
116.083729628

> <JCHEM_ACCEPTOR_COUNT>
2

> <JCHEM_AVERAGE_POLARIZABILITY>
13.269938207309673

> <JCHEM_BIOAVAILABILITY>
1

> <JCHEM_DONOR_COUNT>
1

> <JCHEM_FORMAL_CHARGE>
0

> <JCHEM_GHOSE_FILTER>
0

> <JCHEM_IUPAC>
hexanoic acid

> <ALOGPS_LOGP>
1.88

> <JCHEM_LOGP>
1.8108961276666666

> <ALOGPS_LOGS>
-1.08

> <JCHEM_MDDR_LIKE_RULE>
0

> <JCHEM_NUMBER_OF_RINGS>
0

> <JCHEM_PHYSIOLOGICAL_CHARGE>
-1

> <JCHEM_PKA_STRONGEST_ACIDIC>
5.090214000852688

> <JCHEM_POLAR_SURFACE_AREA>
37.3

> <JCHEM_REFRACTIVITY>
31.0736

> <JCHEM_ROTATABLE_BOND_COUNT>
4

> <JCHEM_RULE_OF_FIVE>
1

> <ALOGPS_SOLUBILITY>
9.72e+00 g/l

> <JCHEM_TRADITIONAL_IUPAC>
hexanoic acid

> <JCHEM_VEBER_RULE>
1

> <HMDB_ID>
HMDB00535

> <GENERIC_NAME>
Caproic acid

> <SYNONYMS>
1-Hexanoate; 1-Hexanoic acid; 1-Pentanecarboxylate; 1-Pentanecarboxylic acid; Butylacetate; Butylacetic acid; Caproate; Caproic acid; Capronate; Capronic acid; Hexanoate; Hexanoic acid; Hexoate; Hexoic acid; Hexylate; Hexylic acid; N-Caproate; N-Caproic acid; N-Hexanoate; N-Hexanoic acid; N-Hexoate; N-Hexoic acid; N-Hexylate; N-Hexylic acid; Pentylformate; Pentylformic acid

$$$$
