
  Mrv0541 02231219262D          

 22 21  0  0  0  0            999 V2000
   18.9872   -3.8937    0.0000 O   0  0  0  0  0  0  0  0  0  0  0  0
   19.7017   -5.1313    0.0000 O   0  0  0  0  0  0  0  0  0  0  0  0
   26.8466   -4.3062    0.0000 C   0  0  0  0  0  0  0  0  0  0  0  0
   26.1321   -3.8937    0.0000 C   0  0  0  0  0  0  0  0  0  0  0  0
   27.5610   -3.8937    0.0000 C   0  0  0  0  0  0  0  0  0  0  0  0
   25.4176   -4.3062    0.0000 C   0  0  0  0  0  0  0  0  0  0  0  0
   28.2756   -4.3062    0.0000 C   0  0  0  0  0  0  0  0  0  0  0  0
   24.7031   -3.8937    0.0000 C   0  0  0  0  0  0  0  0  0  0  0  0
   28.9900   -3.8937    0.0000 C   0  0  0  0  0  0  0  0  0  0  0  0
   23.9886   -4.3062    0.0000 C   0  0  0  0  0  0  0  0  0  0  0  0
   29.7045   -4.3062    0.0000 C   0  0  0  0  0  0  0  0  0  0  0  0
   23.2741   -3.8937    0.0000 C   0  0  0  0  0  0  0  0  0  0  0  0
   30.4190   -3.8937    0.0000 C   0  0  0  0  0  0  0  0  0  0  0  0
   22.5597   -4.3062    0.0000 C   0  0  0  0  0  0  0  0  0  0  0  0
   31.1335   -4.3062    0.0000 C   0  0  0  0  0  0  0  0  0  0  0  0
   21.8451   -3.8937    0.0000 C   0  0  0  0  0  0  0  0  0  0  0  0
   31.8480   -3.8937    0.0000 C   0  0  0  0  0  0  0  0  0  0  0  0
   21.1307   -4.3062    0.0000 C   0  0  0  0  0  0  0  0  0  0  0  0
   32.5624   -4.3062    0.0000 C   0  0  0  0  0  0  0  0  0  0  0  0
   20.4162   -3.8937    0.0000 C   0  0  0  0  0  0  0  0  0  0  0  0
   33.2769   -3.8937    0.0000 C   0  0  0  0  0  0  0  0  0  0  0  0
   19.7017   -4.3062    0.0000 C   0  0  0  0  0  0  0  0  0  0  0  0
  1 22  1  0  0  0  0
  2 22  2  0  0  0  0
  3  4  1  0  0  0  0
  3  5  1  0  0  0  0
  4  6  1  0  0  0  0
  5  7  1  0  0  0  0
  6  8  1  0  0  0  0
  7  9  1  0  0  0  0
  8 10  1  0  0  0  0
  9 11  1  0  0  0  0
 10 12  1  0  0  0  0
 11 13  1  0  0  0  0
 12 14  1  0  0  0  0
 13 15  1  0  0  0  0
 14 16  1  0  0  0  0
 15 17  1  0  0  0  0
 16 18  1  0  0  0  0
 17 19  1  0  0  0  0
 18 20  1  0  0  0  0
 19 21  1  0  0  0  0
 20 22  1  0  0  0  0
M  END
> <DATABASE_ID>
HMDB02212

> <DATABASE_NAME>
hmdb

> <SMILES>
CCCCCCCCCCCCCCCCCCCC(O)=O

> <INCHI_IDENTIFIER>
InChI=1S/C20H40O2/c1-2-3-4-5-6-7-8-9-10-11-12-13-14-15-16-17-18-19-20(21)22/h2-19H2,1H3,(H,21,22)

> <INCHI_KEY>
VKOBVWXKNCXXDE-UHFFFAOYSA-N

> <FORMULA>
C20H40O2

> <MOLECULAR_WEIGHT>
312.5304

> <EXACT_MASS>
312.302830524

> <JCHEM_ACCEPTOR_COUNT>
2

> <JCHEM_AVERAGE_POLARIZABILITY>
42.91481110163747

> <JCHEM_BIOAVAILABILITY>
0

> <JCHEM_DONOR_COUNT>
1

> <JCHEM_FORMAL_CHARGE>
0

> <JCHEM_GHOSE_FILTER>
0

> <JCHEM_IUPAC>
icosanoic acid

> <ALOGPS_LOGP>
8.53

> <JCHEM_LOGP>
8.034857437666666

> <ALOGPS_LOGS>
-6.80

> <JCHEM_MDDR_LIKE_RULE>
0

> <JCHEM_NUMBER_OF_RINGS>
0

> <JCHEM_PHYSIOLOGICAL_CHARGE>
-1

> <JCHEM_PKA_STRONGEST_ACIDIC>
4.952019655228562

> <JCHEM_POLAR_SURFACE_AREA>
37.3

> <JCHEM_REFRACTIVITY>
95.48759999999999

> <JCHEM_ROTATABLE_BOND_COUNT>
18

> <JCHEM_RULE_OF_FIVE>
0

> <ALOGPS_SOLUBILITY>
4.96e-05 g/l

> <JCHEM_TRADITIONAL_IUPAC>
arachidic acid

> <JCHEM_VEBER_RULE>
0

> <HMDB_ID>
HMDB02212

> <GENERIC_NAME>
Arachidic acid

> <SYNONYMS>
Arachate; Arachic acid; Arachidate; Arachidic acid; Eicosanoate; Eicosanoic acid; Icosanoate; Icosanoic acid; N-Eicosanoate; N-Eicosanoic acid

$$$$
