
  Mrv0541 02231219012D          

 13 13  0  0  1  0            999 V2000
   11.2717   -8.3494    0.0000 H   0  0  0  0  0  0  0  0  0  0  0  0
   10.5059   -8.1564    0.0000 C   0  0  0  0  0  0  0  0  0  0  0  0
   11.1425   -7.6318    0.0000 C   0  0  2  0  0  0  0  0  0  0  0  0
   12.1356   -8.7158    0.0000 C   0  0  0  0  0  0  0  0  0  0  0  0
   12.9598   -8.7520    0.0000 C   0  0  0  0  0  0  0  0  0  0  0  0
   11.9153   -7.9208    0.0000 C   0  0  2  0  0  0  0  0  0  0  0  0
   13.2488   -7.9793    0.0000 C   0  0  0  0  0  0  0  0  0  0  0  0
    9.7332   -7.8674    0.0000 O   0  0  0  0  0  0  0  0  0  0  0  0
   11.0065   -6.8180    0.0000 O   0  0  0  0  0  0  0  0  0  0  0  0
   11.6219   -9.3614    0.0000 O   0  0  0  0  0  0  0  0  0  0  0  0
   13.4150   -9.4400    0.0000 O   0  0  0  0  0  0  0  0  0  0  0  0
   14.0439   -7.7589    0.0000 O   0  0  0  0  0  0  0  0  0  0  0  0
   12.6033   -7.4656    0.0000 O   0  0  0  0  0  0  0  0  0  0  0  0
  2  8  1  0  0  0  0
  2  3  1  0  0  0  0
  3  9  1  1  0  0  0
  3  6  1  0  0  0  0
  4  6  1  0  0  0  0
  4 10  2  0  0  0  0
  4  5  1  0  0  0  0
  5 11  2  0  0  0  0
  5  7  1  0  0  0  0
  6 13  1  0  0  0  0
  7 12  2  0  0  0  0
  7 13  1  0  0  0  0
  6  1  1  6  0  0  0
M  END
> <DATABASE_ID>
HMDB01264

> <DATABASE_NAME>
hmdb

> <SMILES>
[H][C@@]1(OC(=O)C(=O)C1=O)[C@H](O)CO

> <INCHI_IDENTIFIER>
InChI=1S/C6H6O6/c7-1-2(8)5-3(9)4(10)6(11)12-5/h2,5,7-8H,1H2/t2-,5-/m1/s1

> <INCHI_KEY>
SBJKKFFYIZUCET-DUZGATOHSA-N

> <FORMULA>
C6H6O6

> <MOLECULAR_WEIGHT>
174.1082

> <EXACT_MASS>
174.016437924

> <JCHEM_ACCEPTOR_COUNT>
5

> <JCHEM_AVERAGE_POLARIZABILITY>
14.019832356638853

> <JCHEM_BIOAVAILABILITY>
1

> <JCHEM_DONOR_COUNT>
2

> <JCHEM_FORMAL_CHARGE>
0

> <JCHEM_GHOSE_FILTER>
0

> <JCHEM_IUPAC>
(5R)-5-[(1R)-1,2-dihydroxyethyl]oxolane-2,3,4-trione

> <ALOGPS_LOGP>
-1.17

> <JCHEM_LOGP>
-0.6728306333333334

> <ALOGPS_LOGS>
0.04

> <JCHEM_MDDR_LIKE_RULE>
0

> <JCHEM_NUMBER_OF_RINGS>
1

> <JCHEM_PHYSIOLOGICAL_CHARGE>
-1

> <JCHEM_PKA>
12.947507235055642

> <JCHEM_PKA_STRONGEST_ACIDIC>
1.5571896779025947

> <JCHEM_PKA_STRONGEST_BASIC>
-2.980802852202162

> <JCHEM_POLAR_SURFACE_AREA>
100.89999999999999

> <JCHEM_REFRACTIVITY>
33.5458

> <JCHEM_ROTATABLE_BOND_COUNT>
2

> <JCHEM_RULE_OF_FIVE>
1

> <ALOGPS_SOLUBILITY>
1.90e+02 g/l

> <JCHEM_TRADITIONAL_IUPAC>
(5R)-5-[(1R)-1,2-dihydroxyethyl]oxolane-2,3,4-trione

> <JCHEM_VEBER_RULE>
0

> <HMDB_ID>
HMDB01264

> <GENERIC_NAME>
Dehydroascorbic acid

> <SYNONYMS>
1-Dehydroascorbate; 1-Dehydroascorbic acid; Dehydro-L-ascorbate; Dehydro-L-ascorbic acid; Dehydroascorbate; DHAA; L-Dehydroascorbate; L-Dehydroascorbic acid; L-Threo-2,3-Hexodiulosonic acid gamma-lactone; L-Threo-hexo-2,3-diulosono-1,4-lactone; Oxidized ascorbate; Oxidized ascorbic acid; Oxidized vitamin C

$$$$
