
  Mrv0541 02231217112D          

 18 17  0  0  0  0            999 V2000
    7.9480    5.4138    0.0000 C   0  0  0  0  0  0  0  0  0  0  0  0
    8.6625    5.0013    0.0000 C   0  0  0  0  0  0  0  0  0  0  0  0
    9.3770    5.4138    0.0000 C   0  0  0  0  0  0  0  0  0  0  0  0
   10.0914    5.0013    0.0000 C   0  0  0  0  0  0  0  0  0  0  0  0
   10.8059    5.4138    0.0000 C   0  0  0  0  0  0  0  0  0  0  0  0
   11.5204    5.0013    0.0000 C   0  0  0  0  0  0  0  0  0  0  0  0
   12.2349    5.4138    0.0000 C   0  0  0  0  0  0  0  0  0  0  0  0
   12.9493    5.0013    0.0000 C   0  0  0  0  0  0  0  0  0  0  0  0
   13.6638    5.4138    0.0000 C   0  0  0  0  0  0  0  0  0  0  0  0
   14.3783    5.0013    0.0000 C   0  0  0  0  0  0  0  0  0  0  0  0
   15.0927    5.4138    0.0000 C   0  0  0  0  0  0  0  0  0  0  0  0
   15.8072    5.0013    0.0000 C   0  0  0  0  0  0  0  0  0  0  0  0
   16.5217    5.4138    0.0000 C   0  0  0  0  0  0  0  0  0  0  0  0
   17.2362    5.0013    0.0000 C   0  0  0  0  0  0  0  0  0  0  0  0
   17.9506    5.4138    0.0000 C   0  0  0  0  0  0  0  0  0  0  0  0
   18.6651    5.0013    0.0000 C   0  0  0  0  0  0  0  0  0  0  0  0
   19.3796    5.4138    0.0000 O   0  0  0  0  0  0  0  0  0  0  0  0
   18.6651    4.1763    0.0000 O   0  0  0  0  0  0  0  0  0  0  0  0
  1  2  1  0  0  0  0
  2  3  1  0  0  0  0
  3  4  1  0  0  0  0
  4  5  1  0  0  0  0
  5  6  1  0  0  0  0
  6  7  1  0  0  0  0
  7  8  1  0  0  0  0
  8  9  1  0  0  0  0
  9 10  1  0  0  0  0
 10 11  1  0  0  0  0
 11 12  1  0  0  0  0
 12 13  1  0  0  0  0
 13 14  1  0  0  0  0
 14 15  1  0  0  0  0
 15 16  1  0  0  0  0
 16 17  1  0  0  0  0
 16 18  2  0  0  0  0
M  END
> <DATABASE_ID>
HMDB00220

> <DATABASE_NAME>
hmdb

> <SMILES>
CCCCCCCCCCCCCCCC(O)=O

> <INCHI_IDENTIFIER>
InChI=1S/C16H32O2/c1-2-3-4-5-6-7-8-9-10-11-12-13-14-15-16(17)18/h2-15H2,1H3,(H,17,18)

> <INCHI_KEY>
IPCSVZSSVZVIGE-UHFFFAOYSA-N

> <FORMULA>
C16H32O2

> <MOLECULAR_WEIGHT>
256.4241

> <EXACT_MASS>
256.240230268

> <JCHEM_ACCEPTOR_COUNT>
2

> <JCHEM_AVERAGE_POLARIZABILITY>
34.35684664668412

> <JCHEM_BIOAVAILABILITY>
0

> <JCHEM_DONOR_COUNT>
1

> <JCHEM_FORMAL_CHARGE>
0

> <JCHEM_GHOSE_FILTER>
0

> <JCHEM_IUPAC>
hexadecanoic acid

> <ALOGPS_LOGP>
7.23

> <JCHEM_LOGP>
6.256582777666667

> <ALOGPS_LOGS>
-5.80

> <JCHEM_MDDR_LIKE_RULE>
0

> <JCHEM_NUMBER_OF_RINGS>
0

> <JCHEM_PHYSIOLOGICAL_CHARGE>
-1

> <JCHEM_PKA_STRONGEST_ACIDIC>
4.952019655228562

> <JCHEM_POLAR_SURFACE_AREA>
37.3

> <JCHEM_REFRACTIVITY>
77.08359999999999

> <JCHEM_ROTATABLE_BOND_COUNT>
14

> <JCHEM_RULE_OF_FIVE>
0

> <ALOGPS_SOLUBILITY>
4.07e-04 g/l

> <JCHEM_TRADITIONAL_IUPAC>
palmitic acid

> <JCHEM_VEBER_RULE>
0

> <HMDB_ID>
HMDB00220

> <GENERIC_NAME>
Palmitic acid

> <SYNONYMS>
1-Hexyldecanoate; 1-Hexyldecanoic acid; 1-Pentadecanecarboxylic acid; C16 fatty acid; Cetylic acid; Edenor C16; Emersol 140; Emersol 143; Glycon P-45; Hexadecanoate; Hexadecanoate (n-C16:0); Hexadecanoic acid; Hexadecanoic acid palmitic acid; Hexadecoate; Hexadecoic acid; Hexadecylic acid; Hexaectylic acid; Hydrofol; Hydrofol acid 1690; Hystrene 8016; Hystrene 9016; Industrene 4516; Kortacid 1698; Loxiol EP 278; Lunac P 95; Lunac P 95KC; Lunac P 98; N-Hexadecanoate; N-Hexadecanoic acid; N-Hexadecoate; N-Hexadecoic acid; Palmitate; Palmitic acid; Palmitinate; Palmitinic acid; Palmitinsaeure; Palmitoate; Palmitoic acid; PAM; Pentadecanecarboxylate; Pentadecanecarboxylic acid; PLM; Prifac 2960; Prifrac 2960; Pristerene 4934; Univol U332

$$$$
