
  Mrv0541 02231218322D          

 12 12  0  0  1  0            999 V2000
   14.7378   -8.7840    0.0000 O   0  0  0  0  0  0  0  0  0  0  0  0
   14.2963  -10.1430    0.0000 O   0  0  0  0  0  0  0  0  0  0  0  0
   11.2749   -9.8632    0.0000 N   0  0  0  0  0  0  0  0  0  0  0  0
   13.1686   -8.2741    0.0000 N   0  0  0  0  0  0  0  0  0  0  0  0
   10.8624   -8.5936    0.0000 N   0  0  0  0  0  0  0  0  0  0  0  0
   12.7270   -9.6332    0.0000 C   0  0  0  0  0  0  0  0  0  0  0  0
   13.3401   -9.0811    0.0000 C   0  0  1  0  0  0  0  0  0  0  0  0
   11.9424   -9.3782    0.0000 C   0  0  0  0  0  0  0  0  0  0  0  0
   11.6874   -8.5936    0.0000 C   0  0  0  0  0  0  0  0  0  0  0  0
   10.6075   -9.3782    0.0000 C   0  0  0  0  0  0  0  0  0  0  0  0
   14.1247   -9.3361    0.0000 C   0  0  0  0  0  0  0  0  0  0  0  0
   11.2749  -10.6882    0.0000 C   0  0  0  0  0  0  0  0  0  0  0  0
  1 11  1  0  0  0  0
  2 11  2  0  0  0  0
  3  8  1  0  0  0  0
  3 10  1  0  0  0  0
  3 12  1  0  0  0  0
  7  4  1  6  0  0  0
  5  9  1  0  0  0  0
  5 10  2  0  0  0  0
  6  7  1  0  0  0  0
  6  8  1  0  0  0  0
  7 11  1  0  0  0  0
  8  9  2  0  0  0  0
M  END
> <DATABASE_ID>
HMDB00479

> <DATABASE_NAME>
hmdb

> <SMILES>
CN1C=NC=C1C[C@H](N)C(O)=O

> <INCHI_IDENTIFIER>
InChI=1S/C7H11N3O2/c1-10-4-9-3-5(10)2-6(8)7(11)12/h3-4,6H,2,8H2,1H3,(H,11,12)/t6-/m0/s1

> <INCHI_KEY>
JDHILDINMRGULE-LURJTMIESA-N

> <FORMULA>
C7H11N3O2

> <MOLECULAR_WEIGHT>
169.1811

> <EXACT_MASS>
169.085126611

> <JCHEM_ACCEPTOR_COUNT>
4

> <JCHEM_AVERAGE_POLARIZABILITY>
16.579381016234993

> <JCHEM_BIOAVAILABILITY>
1

> <JCHEM_DONOR_COUNT>
2

> <JCHEM_FORMAL_CHARGE>
0

> <JCHEM_GHOSE_FILTER>
0

> <JCHEM_IUPAC>
(2S)-2-amino-3-(1-methyl-1H-imidazol-5-yl)propanoic acid

> <ALOGPS_LOGP>
-2.89

> <JCHEM_LOGP>
-3.3952407273413714

> <ALOGPS_LOGS>
-1.39

> <JCHEM_MDDR_LIKE_RULE>
0

> <JCHEM_NUMBER_OF_RINGS>
1

> <JCHEM_PHYSIOLOGICAL_CHARGE>
0

> <JCHEM_PKA_STRONGEST_ACIDIC>
1.9601640787274257

> <JCHEM_PKA_STRONGEST_BASIC>
9.428858911874197

> <JCHEM_POLAR_SURFACE_AREA>
81.14

> <JCHEM_REFRACTIVITY>
42.9557

> <JCHEM_ROTATABLE_BOND_COUNT>
3

> <JCHEM_RULE_OF_FIVE>
1

> <ALOGPS_SOLUBILITY>
6.93e+00 g/l

> <JCHEM_TRADITIONAL_IUPAC>
3,methylhistidine

> <JCHEM_VEBER_RULE>
0

> <HMDB_ID>
HMDB00479

> <GENERIC_NAME>
3-Methylhistidine

> <SYNONYMS>
(2S)-2-amino-3-(1-methyl-1H-imidazol-5-yl)propanoate; (2S)-2-amino-3-(1-methyl-1H-imidazol-5-yl)propanoic acid; 3-Methyl-L-histidine; 3-Methylhistidine; 3-N-Methyl-L-histidine; L-3-Methylhistidine; N(Pai)-Methyl-L-histidine; N(Pi)-methyl-L-histidine; N(Pros)-methyl-L-histidine; N3-Methyl-L-histidine; Pi-Methyl-L-histidine; Tau-Methyl-L-histidine; Tau-methylhistidine

$$$$
