
  Mrv0541 02231218502D          

 14 14  0  0  0  0            999 V2000
    8.1216  -10.9530    0.0000 C   0  0  0  0  0  0  0  0  0  0  0  0
   10.3197   -9.8153    0.0000 C   0  0  0  0  0  0  0  0  0  0  0  0
   11.0902   -8.6119    0.0000 C   0  0  0  0  0  0  0  0  0  0  0  0
    9.5870  -10.1945    0.0000 C   0  0  0  0  0  0  0  0  0  0  0  0
   11.7850   -9.0568    0.0000 C   0  0  0  0  0  0  0  0  0  0  0  0
    9.6628   -8.5462    0.0000 C   0  0  0  0  0  0  0  0  0  0  0  0
   10.3576   -8.9912    0.0000 C   0  0  0  0  0  0  0  0  0  0  0  0
    8.9301   -8.9255    0.0000 C   0  0  0  0  0  0  0  0  0  0  0  0
    8.8922   -9.7497    0.0000 C   0  0  0  0  0  0  0  0  0  0  0  0
   12.5176   -8.6775    0.0000 C   0  0  0  0  0  0  0  0  0  0  0  0
    8.2353   -8.4807    0.0000 O   0  0  0  0  0  0  0  0  0  0  0  0
   12.5555   -7.8534    0.0000 O   0  0  0  0  0  0  0  0  0  0  0  0
   13.2124   -9.1224    0.0000 O   0  0  0  0  0  0  0  0  0  0  0  0
    8.1595  -10.1289    0.0000 O   0  0  0  0  0  0  0  0  0  0  0  0
  1 14  1  0  0  0  0
  2  4  2  0  0  0  0
  2  7  1  0  0  0  0
  3  7  1  0  0  0  0
  3  5  2  0  0  0  0
  4  9  1  0  0  0  0
  5 10  1  0  0  0  0
  6  7  2  0  0  0  0
  6  8  1  0  0  0  0
  8  9  2  0  0  0  0
  8 11  1  0  0  0  0
  9 14  1  0  0  0  0
 10 12  1  0  0  0  0
 10 13  2  0  0  0  0
M  END
> <DATABASE_ID>
HMDB00955

> <DATABASE_NAME>
hmdb

> <SMILES>
COC1=C(O)C=C(\C=C\C(O)=O)C=C1

> <INCHI_IDENTIFIER>
InChI=1S/C10H10O4/c1-14-9-4-2-7(6-8(9)11)3-5-10(12)13/h2-6,11H,1H3,(H,12,13)/b5-3+

> <INCHI_KEY>
QURCVMIEKCOAJU-HWKANZROSA-N

> <FORMULA>
C10H10O4

> <MOLECULAR_WEIGHT>
194.184

> <EXACT_MASS>
194.057908808

> <JCHEM_ACCEPTOR_COUNT>
4

> <JCHEM_AVERAGE_POLARIZABILITY>
19.362647576770062

> <JCHEM_BIOAVAILABILITY>
1

> <JCHEM_DONOR_COUNT>
2

> <JCHEM_FORMAL_CHARGE>
0

> <JCHEM_GHOSE_FILTER>
1

> <JCHEM_IUPAC>
(2E)-3-(3-hydroxy-4-methoxyphenyl)prop-2-enoic acid

> <ALOGPS_LOGP>
1.56

> <JCHEM_LOGP>
1.6748496726666668

> <ALOGPS_LOGS>
-2.35

> <JCHEM_MDDR_LIKE_RULE>
0

> <JCHEM_NUMBER_OF_RINGS>
1

> <JCHEM_PHYSIOLOGICAL_CHARGE>
-1

> <JCHEM_PKA>
9.852538782041124

> <JCHEM_PKA_STRONGEST_ACIDIC>
3.767472407589629

> <JCHEM_PKA_STRONGEST_BASIC>
-4.889780749263311

> <JCHEM_POLAR_SURFACE_AREA>
66.76

> <JCHEM_REFRACTIVITY>
51.50400000000001

> <JCHEM_ROTATABLE_BOND_COUNT>
3

> <JCHEM_RULE_OF_FIVE>
1

> <ALOGPS_SOLUBILITY>
8.71e-01 g/l

> <JCHEM_TRADITIONAL_IUPAC>
isoferulic acid

> <JCHEM_VEBER_RULE>
0

> <HMDB_ID>
HMDB00955

> <GENERIC_NAME>
Isoferulic acid

> <SYNONYMS>
3-(3-Hydroxy-4-methoxyphenyl)-2-Propenoate; 3-(3-Hydroxy-4-methoxyphenyl)-2-Propenoic acid; 3-Hydroxy-4-methoxy-Cinnamate; 3-Hydroxy-4-methoxy-Cinnamic acid; 3-Hydroxy-4-methoxycinnamate; 3-Hydroxy-4-methoxycinnamic acid; Hesperetate; Hesperetic acid; Isoferulate

$$$$
