
  Mrv0541 02231217022D          

 13 12  0  0  1  0            999 V2000
    7.2849    3.3809    0.0000 N   0  0  0  0  0  0  0  0  0  0  0  0
    7.2849    2.5559    0.0000 C   0  0  1  0  0  0  0  0  0  0  0  0
    6.5704    2.1434    0.0000 C   0  0  0  0  0  0  0  0  0  0  0  0
    5.8559    2.5559    0.0000 C   0  0  0  0  0  0  0  0  0  0  0  0
    5.1414    2.1434    0.0000 C   0  0  0  0  0  0  0  0  0  0  0  0
    4.4270    2.5559    0.0000 C   0  0  2  0  0  0  0  0  0  0  0  0
    4.4270    3.3809    0.0000 N   0  0  0  0  0  0  0  0  0  0  0  0
    3.7125    2.1434    0.0000 C   0  0  0  0  0  0  0  0  0  0  0  0
    2.9980    2.5559    0.0000 O   0  0  0  0  0  0  0  0  0  0  0  0
    3.7125    1.3184    0.0000 O   0  0  0  0  0  0  0  0  0  0  0  0
    7.9993    2.1434    0.0000 C   0  0  0  0  0  0  0  0  0  0  0  0
    8.7138    2.5559    0.0000 O   0  0  0  0  0  0  0  0  0  0  0  0
    7.9993    1.3184    0.0000 O   0  0  0  0  0  0  0  0  0  0  0  0
  2  1  1  6  0  0  0
  2  3  1  0  0  0  0
  3  4  1  0  0  0  0
  4  5  1  0  0  0  0
  5  6  1  0  0  0  0
  6  7  1  1  0  0  0
  6  8  1  0  0  0  0
  8  9  1  0  0  0  0
  8 10  2  0  0  0  0
  2 11  1  0  0  0  0
 11 12  1  0  0  0  0
 11 13  2  0  0  0  0
M  END
> <DATABASE_ID>
HMDB01370

> <DATABASE_NAME>
hmdb

> <SMILES>
N[C@@H](CCC[C@H](N)C(O)=O)C(O)=O

> <INCHI_IDENTIFIER>
InChI=1S/C7H14N2O4/c8-4(6(10)11)2-1-3-5(9)7(12)13/h4-5H,1-3,8-9H2,(H,10,11)(H,12,13)/t4-,5-/m0/s1

> <INCHI_KEY>
GMKMEZVLHJARHF-WHFBIAKZSA-N

> <FORMULA>
C7H14N2O4

> <MOLECULAR_WEIGHT>
190.1971

> <EXACT_MASS>
190.095356946

> <JCHEM_ACCEPTOR_COUNT>
6

> <JCHEM_AVERAGE_POLARIZABILITY>
18.933170312562254

> <JCHEM_BIOAVAILABILITY>
1

> <JCHEM_DONOR_COUNT>
4

> <JCHEM_FORMAL_CHARGE>
0

> <JCHEM_GHOSE_FILTER>
0

> <JCHEM_IUPAC>
(2S,6S)-2,6-diaminoheptanedioic acid

> <ALOGPS_LOGP>
-4.13

> <JCHEM_LOGP>
-5.545367993935247

> <ALOGPS_LOGS>
-1.13

> <JCHEM_MDDR_LIKE_RULE>
0

> <JCHEM_NUMBER_OF_RINGS>
0

> <JCHEM_PHYSIOLOGICAL_CHARGE>
0

> <JCHEM_PKA>
2.585040505515717

> <JCHEM_PKA_STRONGEST_ACIDIC>
1.8470749826619342

> <JCHEM_PKA_STRONGEST_BASIC>
9.827564769536531

> <JCHEM_POLAR_SURFACE_AREA>
126.64000000000001

> <JCHEM_REFRACTIVITY>
43.63940000000001

> <JCHEM_ROTATABLE_BOND_COUNT>
6

> <JCHEM_RULE_OF_FIVE>
1

> <ALOGPS_SOLUBILITY>
1.41e+01 g/l

> <JCHEM_TRADITIONAL_IUPAC>
diamino-pimelic acid

> <JCHEM_VEBER_RULE>
0

> <HMDB_ID>
HMDB01370

> <GENERIC_NAME>
Diaminopimelic acid

> <SYNONYMS>
(   (R*,S*)-2,6-diamino-Heptanedioate; (   (R*,S*)-2,6-diamino-Heptanedioic acid; (2R,6S)-2,6-diamino-heptanedioate; (2R,6S)-2,6-diamino-heptanedioic acid; (R*,S*)-2,6-diamino-Heptanedioate; (R*,S*)-2,6-diamino-Heptanedioic acid; 2,6-Diamino-Heptanedioate; 2,6-Diamino-Heptanedioic acid; 2,6-Diaminoheptanedioate; 2,6-Diaminoheptanedioic acid; 2,6-Diaminopimelate; 2,6-Diaminopimelic acid; a,a'-Diaminopimelate; a,a'-Diaminopimelic acid; a,e-Diaminopimelate; a,e-Diaminopimelic acid; D,L-Diaminopimelate; D,L-Meso-diaminoheptanedioate; D,L-Meso-diaminoheptanedioic acid; DAPA; Diaminopimelic acid; Dl-2,6-Diaminoheptanedioate; Dl-2,6-Diaminoheptanedioic acid; DL-2,6-Diaminopimelate; DL-2,6-Diaminopimelic acid; L,L-2,6-Diaminoheptanedioate; L,L-2,6-Diaminoheptanedioic acid; L,L-2,6-Diaminopimelate; L,L-Diaminopimelate; LL-2,6-diaminoheptanedioate; LL-2,6-diaminoheptanedioic acid; LL-2,6-Diaminopimelic acid; Meso-1-alpha,epsilon-diaminopimelate; Meso-2,6-diamino-Heptanedioate; Meso-2,6-diamino-Heptanedioic acid; Meso-2,6-diaminoheptanedioate; Meso-2,6-diaminoheptanedioic acid; Meso-alpha,alpha'-Diaminopimelate; Meso-alpha,alpha'-Diaminopimelic acid; Meso-alpha,epsilon-Diaminopimelate; Meso-alpha,epsilon-Diaminopimelic acid; Meso-diaminoheptanedioate; Meso-diaminoheptanedioic acid; Meso-diaminopimelate

$$$$
