201
  Mrv0541 02231214312D          

 14 15  0  0  0  0            999 V2000
    3.0791    1.6500    0.0000 O   0  0  0  0  0  0  0  0  0  0  0  0
    1.6500   -0.8250    0.0000 O   0  0  0  0  0  0  0  0  0  0  0  0
    3.0791   -0.8250    0.0000 N   0  0  0  0  0  0  0  0  0  0  0  0
    4.5741    0.6639    0.0000 N   0  0  0  0  0  0  0  0  0  0  0  0
    2.3645    0.4125    0.0000 N   0  0  0  0  0  0  0  0  0  0  0  0
    4.5741   -0.6639    0.0000 N   0  0  0  0  0  0  0  0  0  0  0  0
    3.7935    0.4125    0.0000 C   0  0  0  0  0  0  0  0  0  0  0  0
    3.7935   -0.4125    0.0000 C   0  0  0  0  0  0  0  0  0  0  0  0
    3.0791    0.8250    0.0000 C   0  0  0  0  0  0  0  0  0  0  0  0
    2.3645   -0.4125    0.0000 C   0  0  0  0  0  0  0  0  0  0  0  0
    5.0556    0.0000    0.0000 C   0  0  0  0  0  0  0  0  0  0  0  0
    3.0791   -1.6500    0.0000 C   0  0  0  0  0  0  0  0  0  0  0  0
    4.8305    1.4482    0.0000 C   0  0  0  0  0  0  0  0  0  0  0  0
    1.6500    0.8250    0.0000 C   0  0  0  0  0  0  0  0  0  0  0  0
  1  9  2  0  0  0  0
  2 10  2  0  0  0  0
  3  8  1  0  0  0  0
  3 10  1  0  0  0  0
  3 12  1  0  0  0  0
  4  7  1  0  0  0  0
  4 11  1  0  0  0  0
  4 13  1  0  0  0  0
  5  9  1  0  0  0  0
  5 10  1  0  0  0  0
  5 14  1  0  0  0  0
  6  8  1  0  0  0  0
  6 11  2  0  0  0  0
  7  8  2  0  0  0  0
  7  9  1  0  0  0  0
M  END
> <DATABASE_ID>
HMDB01847

> <DATABASE_NAME>
hmdb

> <SMILES>
CN1C=NC2=C1C(=O)N(C)C(=O)N2C

> <INCHI_IDENTIFIER>
InChI=1S/C8H10N4O2/c1-10-4-9-6-5(10)7(13)12(3)8(14)11(6)2/h4H,1-3H3

> <INCHI_KEY>
RYYVLZVUVIJVGH-UHFFFAOYSA-N

> <FORMULA>
C8H10N4O2

> <MOLECULAR_WEIGHT>
194.1906

> <EXACT_MASS>
194.080375584

> <JCHEM_ACCEPTOR_COUNT>
3

> <JCHEM_AVERAGE_POLARIZABILITY>
18.954930921384214

> <JCHEM_BIOAVAILABILITY>
1

> <JCHEM_DONOR_COUNT>
0

> <JCHEM_FORMAL_CHARGE>
0

> <JCHEM_GHOSE_FILTER>
0

> <JCHEM_IUPAC>
1,3,7-trimethyl-2,3,6,7-tetrahydro-1H-purine-2,6-dione

> <ALOGPS_LOGP>
-0.24

> <JCHEM_LOGP>
-0.5456455916666669

> <ALOGPS_LOGS>
-1.25

> <JCHEM_MDDR_LIKE_RULE>
0

> <JCHEM_NUMBER_OF_RINGS>
2

> <JCHEM_PHYSIOLOGICAL_CHARGE>
0

> <JCHEM_PKA_STRONGEST_BASIC>
-0.9241843687844741

> <JCHEM_POLAR_SURFACE_AREA>
58.440000000000005

> <JCHEM_REFRACTIVITY>
49.8312

> <JCHEM_ROTATABLE_BOND_COUNT>
0

> <JCHEM_RULE_OF_FIVE>
1

> <ALOGPS_SOLUBILITY>
1.10e+01 g/l

> <JCHEM_TRADITIONAL_IUPAC>
caffeine

> <JCHEM_VEBER_RULE>
0

> <HMDB_ID>
HMDB01847

> <GENERIC_NAME>
Caffeine

> <SYNONYMS>
1,3,7-Trimethyl-2,6-dioxopurine; 1,3,7-Trimethyl-3,7-dihydro-1H-purine-2,6-dione; 1,3,7-Trimethylxanthine; 1-Methyl-Theobromine; 3,7-Dihydro-1,3,7-trimethyl-1H-purine-2,6-dione; 7-Methyl Theophylline; Anhydrous caffeine (JP15); Guaranine; Hycomine; Lanorinal; Methyltheobromide; Methylxanthine theophylline; Monohydrate Caffeine; Propoxyphene; Thein

$$$$
