3-Hydroxydodecanedioic acid.mol
  Mrv0541 02231218302D          

 17 16  0  0  0  0            999 V2000
    3.2151    1.0312    0.0000 C   0  0  0  0  0  0  0  0  0  0  0  0
    3.2151    0.2062    0.0000 C   0  0  0  0  0  0  0  0  0  0  0  0
    2.5006   -0.2063    0.0000 C   0  0  0  0  0  0  0  0  0  0  0  0
    2.5006   -1.0313    0.0000 C   0  0  0  0  0  0  0  0  0  0  0  0
    1.7862   -1.4438    0.0000 C   0  0  0  0  0  0  0  0  0  0  0  0
    1.0717   -1.0313    0.0000 C   0  0  0  0  0  0  0  0  0  0  0  0
    0.3572   -1.4438    0.0000 C   0  0  0  0  0  0  0  0  0  0  0  0
   -0.3572   -1.0313    0.0000 C   0  0  0  0  0  0  0  0  0  0  0  0
   -1.0717   -1.4438    0.0000 C   0  0  0  0  0  0  0  0  0  0  0  0
   -1.7862   -1.0313    0.0000 C   0  0  0  0  0  0  0  0  0  0  0  0
   -2.5006   -1.4438    0.0000 C   0  0  0  0  0  0  0  0  0  0  0  0
   -3.2151   -1.0313    0.0000 C   0  0  0  0  0  0  0  0  0  0  0  0
    2.5006    1.4438    0.0000 O   0  0  0  0  0  0  0  0  0  0  0  0
    3.9296    1.4438    0.0000 O   0  0  0  0  0  0  0  0  0  0  0  0
   -3.2151   -0.2063    0.0000 O   0  0  0  0  0  0  0  0  0  0  0  0
   -3.9296   -1.4438    0.0000 O   0  0  0  0  0  0  0  0  0  0  0  0
    1.7862    0.2062    0.0000 O   0  0  0  0  0  0  0  0  0  0  0  0
  1  2  1  0  0  0  0
  2  3  1  0  0  0  0
  3  4  1  0  0  0  0
  4  5  1  0  0  0  0
  5  6  1  0  0  0  0
  6  7  1  0  0  0  0
  7  8  1  0  0  0  0
  8  9  1  0  0  0  0
  9 10  1  0  0  0  0
 10 11  1  0  0  0  0
 11 12  1  0  0  0  0
  1 13  2  0  0  0  0
  1 14  1  0  0  0  0
 12 15  2  0  0  0  0
 12 16  1  0  0  0  0
  3 17  1  0  0  0  0
M  END
> <DATABASE_ID>
HMDB00413

> <DATABASE_NAME>
hmdb

> <SMILES>
OC(CCCCCCCCC(O)=O)CC(O)=O

> <INCHI_IDENTIFIER>
InChI=1S/C12H22O5/c13-10(9-12(16)17)7-5-3-1-2-4-6-8-11(14)15/h10,13H,1-9H2,(H,14,15)(H,16,17)

> <INCHI_KEY>
FYVQCLGZFXHEGL-UHFFFAOYSA-N

> <FORMULA>
C12H22O5

> <MOLECULAR_WEIGHT>
246.3001

> <EXACT_MASS>
246.146723814

> <JCHEM_ACCEPTOR_COUNT>
5

> <JCHEM_AVERAGE_POLARIZABILITY>
27.581064277535212

> <JCHEM_BIOAVAILABILITY>
1

> <JCHEM_DONOR_COUNT>
3

> <JCHEM_FORMAL_CHARGE>
0

> <JCHEM_GHOSE_FILTER>
1

> <JCHEM_IUPAC>
3-hydroxydodecanedioic acid

> <ALOGPS_LOGP>
1.49

> <JCHEM_LOGP>
1.9272552856666674

> <ALOGPS_LOGS>
-2.47

> <JCHEM_MDDR_LIKE_RULE>
0

> <JCHEM_NUMBER_OF_RINGS>
0

> <JCHEM_PHYSIOLOGICAL_CHARGE>
-2

> <JCHEM_PKA>
5.135176336436662

> <JCHEM_PKA_STRONGEST_ACIDIC>
4.488693485812775

> <JCHEM_PKA_STRONGEST_BASIC>
-2.7985874263187887

> <JCHEM_POLAR_SURFACE_AREA>
94.83

> <JCHEM_REFRACTIVITY>
61.8605

> <JCHEM_ROTATABLE_BOND_COUNT>
11

> <JCHEM_RULE_OF_FIVE>
1

> <ALOGPS_SOLUBILITY>
8.30e-01 g/l

> <JCHEM_TRADITIONAL_IUPAC>
3-hydroxydodecanedioic acid

> <JCHEM_VEBER_RULE>
0

> <HMDB_ID>
HMDB00413

> <GENERIC_NAME>
3-Hydroxydodecanedioic acid

> <SYNONYMS>
3-Hydroxydodecanedioate; 3-Hydroxydodecanedioic acid

$$$$
