
  Mrv0541 02231218222D          

 17 17  0  0  1  0            999 V2000
    1.5091    0.2312    0.0000 C   0  0  0  0  0  0  0  0  0  0  0  0
    0.7242    0.4854    0.0000 C   0  0  0  0  0  0  0  0  0  0  0  0
    2.1803    0.7166    0.0000 N   0  0  0  0  0  0  0  0  0  0  0  0
    1.7669   -0.5574    0.0000 C   0  0  0  0  0  0  0  0  0  0  0  0
    0.0113    0.0720    0.0000 C   0  0  2  0  0  0  0  0  0  0  0  0
    2.8438    0.2275    0.0000 C   0  0  0  0  0  0  0  0  0  0  0  0
    2.1727    1.6873    0.0000 C   0  0  0  0  0  0  0  0  0  0  0  0
    2.5935   -0.5498    0.0000 N   0  0  0  0  0  0  0  0  0  0  0  0
   -0.9972    0.4739    0.0000 N   0  0  0  0  0  0  0  0  0  0  0  0
    0.0113   -0.7545    0.0000 C   0  0  0  0  0  0  0  0  0  0  0  0
   -1.7101    0.0607    0.0000 C   0  0  0  0  0  0  0  0  0  0  0  0
    0.7242   -1.1679    0.0000 O   0  0  0  0  0  0  0  0  0  0  0  0
   -0.7053   -1.1679    0.0000 O   0  0  0  0  0  0  0  0  0  0  0  0
   -2.4267    0.4739    0.0000 C   0  0  0  0  0  0  0  0  0  0  0  0
   -1.7101   -0.7621    0.0000 O   0  0  0  0  0  0  0  0  0  0  0  0
   -3.1396    0.0607    0.0000 C   0  0  0  0  0  0  0  0  0  0  0  0
   -3.8523    0.4739    0.0000 N   0  0  0  0  0  0  0  0  0  0  0  0
  1  2  1  0  0  0  0
  1  3  1  0  0  0  0
  1  4  2  0  0  0  0
  2  5  1  0  0  0  0
  3  6  1  0  0  0  0
  3  7  1  0  0  0  0
  4  8  1  0  0  0  0
  5  9  1  0  0  0  0
  5 10  1  1  0  0  0
  9 11  1  0  0  0  0
 10 12  1  0  0  0  0
 10 13  2  0  0  0  0
 11 14  1  0  0  0  0
 11 15  2  0  0  0  0
 14 16  1  0  0  0  0
 16 17  1  0  0  0  0
  6  8  2  0  0  0  0
M  END
> <DATABASE_ID>
HMDB00194

> <DATABASE_NAME>
hmdb

> <SMILES>
CN1C=NC=C1C[C@H](NC(=O)CCN)C(O)=O

> <INCHI_IDENTIFIER>
InChI=1S/C10H16N4O3/c1-14-6-12-5-7(14)4-8(10(16)17)13-9(15)2-3-11/h5-6,8H,2-4,11H2,1H3,(H,13,15)(H,16,17)/t8-/m0/s1

> <INCHI_KEY>
MYYIAHXIVFADCU-QMMMGPOBSA-N

> <FORMULA>
C10H16N4O3

> <MOLECULAR_WEIGHT>
240.259

> <EXACT_MASS>
240.122240398

> <JCHEM_ACCEPTOR_COUNT>
5

> <JCHEM_AVERAGE_POLARIZABILITY>
24.227952637563916

> <JCHEM_BIOAVAILABILITY>
1

> <JCHEM_DONOR_COUNT>
3

> <JCHEM_FORMAL_CHARGE>
0

> <JCHEM_GHOSE_FILTER>
0

> <JCHEM_IUPAC>
(2S)-2-(3-aminopropanamido)-3-(1-methyl-1H-imidazol-5-yl)propanoic acid

> <ALOGPS_LOGP>
-2.95

> <JCHEM_LOGP>
-4.264661298320247

> <ALOGPS_LOGS>
-1.78

> <JCHEM_MDDR_LIKE_RULE>
0

> <JCHEM_NUMBER_OF_RINGS>
1

> <JCHEM_PHYSIOLOGICAL_CHARGE>
0

> <JCHEM_PKA>
13.746199202157133

> <JCHEM_PKA_STRONGEST_ACIDIC>
3.4429697266730193

> <JCHEM_PKA_STRONGEST_BASIC>
9.12552627642139

> <JCHEM_POLAR_SURFACE_AREA>
110.24

> <JCHEM_REFRACTIVITY>
60.458600000000004

> <JCHEM_ROTATABLE_BOND_COUNT>
6

> <JCHEM_RULE_OF_FIVE>
1

> <ALOGPS_SOLUBILITY>
4.01e+00 g/l

> <JCHEM_TRADITIONAL_IUPAC>
anserine

> <JCHEM_VEBER_RULE>
0

> <HMDB_ID>
HMDB00194

> <GENERIC_NAME>
Anserine

> <SYNONYMS>
Anserine; beta-Alanyl-N(pai)-methyl-L-histidine; L-Anserine; L-N-b-Alanyl-3-methyl-Histidine; L-N-beta-Alanyl-3-methyl-Histidine; N-b-Alanyl-3-methyl-L-Histidine; N-beta-Alanyl-3-methyl-L-histidine

$$$$
