
  Mrv0541 02231217472D          

 10  9  0  0  0  0            999 V2000
    3.9039    0.6039    0.0000 O   0  0  0  0  0  0  0  0  0  0  0  0
    3.9039    1.4289    0.0000 C   0  0  0  0  0  0  0  0  0  0  0  0
    3.1895    1.8414    0.0000 C   0  0  0  0  0  0  0  0  0  0  0  0
    2.4750    1.4289    0.0000 C   0  0  0  0  0  0  0  0  0  0  0  0
    1.7605    1.8414    0.0000 O   0  0  0  0  0  0  0  0  0  0  0  0
    2.4750    0.6039    0.0000 O   0  0  0  0  0  0  0  0  0  0  0  0
    4.6184    1.8414    0.0000 C   0  0  0  0  0  0  0  0  0  0  0  0
    5.3329    1.4289    0.0000 C   0  0  0  0  0  0  0  0  0  0  0  0
    6.0474    1.8414    0.0000 O   0  0  0  0  0  0  0  0  0  0  0  0
    5.3329    0.6039    0.0000 O   0  0  0  0  0  0  0  0  0  0  0  0
  1  2  1  0  0  0  0
  2  3  1  0  0  0  0
  3  4  1  0  0  0  0
  4  5  1  0  0  0  0
  4  6  2  0  0  0  0
  2  7  1  0  0  0  0
  7  8  1  0  0  0  0
  8  9  1  0  0  0  0
  8 10  2  0  0  0  0
M  END
> <DATABASE_ID>
HMDB00428

> <DATABASE_NAME>
hmdb

> <SMILES>
OC(CC(O)=O)CC(O)=O

> <INCHI_IDENTIFIER>
InChI=1S/C5H8O5/c6-3(1-4(7)8)2-5(9)10/h3,6H,1-2H2,(H,7,8)(H,9,10)

> <INCHI_KEY>
ZQHYXNSQOIDNTL-UHFFFAOYSA-N

> <FORMULA>
C5H8O5

> <MOLECULAR_WEIGHT>
148.114

> <EXACT_MASS>
148.037173366

> <JCHEM_ACCEPTOR_COUNT>
5

> <JCHEM_AVERAGE_POLARIZABILITY>
12.809688049876742

> <JCHEM_BIOAVAILABILITY>
1

> <JCHEM_DONOR_COUNT>
3

> <JCHEM_FORMAL_CHARGE>
0

> <JCHEM_GHOSE_FILTER>
0

> <JCHEM_IUPAC>
3-hydroxypentanedioic acid

> <ALOGPS_LOGP>
-1.17

> <JCHEM_LOGP>
-1.0288179093333332

> <ALOGPS_LOGS>
0.06

> <JCHEM_MDDR_LIKE_RULE>
0

> <JCHEM_NUMBER_OF_RINGS>
0

> <JCHEM_PHYSIOLOGICAL_CHARGE>
-2

> <JCHEM_PKA>
4.294116866528298

> <JCHEM_PKA_STRONGEST_ACIDIC>
3.5233997663487395

> <JCHEM_PKA_STRONGEST_BASIC>
-2.913303860550256

> <JCHEM_POLAR_SURFACE_AREA>
94.83000000000001

> <JCHEM_REFRACTIVITY>
29.4995

> <JCHEM_ROTATABLE_BOND_COUNT>
4

> <JCHEM_RULE_OF_FIVE>
1

> <ALOGPS_SOLUBILITY>
1.72e+02 g/l

> <JCHEM_TRADITIONAL_IUPAC>
3-hydroxyglutaric acid

> <JCHEM_VEBER_RULE>
0

> <HMDB_ID>
HMDB00428

> <GENERIC_NAME>
3-Hydroxyglutaric acid

> <SYNONYMS>
3-Hydroxy-glutarate; 3-Hydroxy-glutaric acid; 3-Hydroxyglutarate; 3-Hydroxyglutaric acid

$$$$
