Suberylglycine.mol
  Mrv0541 02231218482D          

 12 11  0  0  0  0            999 V2000
    2.1434    0.4125    0.0000 C   0  0  0  0  0  0  0  0  0  0  0  0
    2.1434   -0.4125    0.0000 C   0  0  0  0  0  0  0  0  0  0  0  0
    1.4289   -0.8250    0.0000 C   0  0  0  0  0  0  0  0  0  0  0  0
    0.7145   -0.4125    0.0000 C   0  0  0  0  0  0  0  0  0  0  0  0
    0.0000   -0.8250    0.0000 C   0  0  0  0  0  0  0  0  0  0  0  0
   -0.7145   -0.4125    0.0000 C   0  0  0  0  0  0  0  0  0  0  0  0
   -1.4289   -0.8250    0.0000 C   0  0  0  0  0  0  0  0  0  0  0  0
   -2.1434   -0.4125    0.0000 C   0  0  0  0  0  0  0  0  0  0  0  0
    1.4289    0.8250    0.0000 O   0  0  0  0  0  0  0  0  0  0  0  0
    2.8579    0.8250    0.0000 O   0  0  0  0  0  0  0  0  0  0  0  0
   -2.1434    0.4125    0.0000 O   0  0  0  0  0  0  0  0  0  0  0  0
   -2.8579   -0.8250    0.0000 O   0  0  0  0  0  0  0  0  0  0  0  0
  1  2  1  0  0  0  0
  2  3  1  0  0  0  0
  3  4  1  0  0  0  0
  4  5  1  0  0  0  0
  5  6  1  0  0  0  0
  6  7  1  0  0  0  0
  7  8  1  0  0  0  0
  1  9  2  0  0  0  0
  1 10  1  0  0  0  0
  8 11  2  0  0  0  0
  8 12  1  0  0  0  0
M  END
> <DATABASE_ID>
HMDB00893

> <DATABASE_NAME>
hmdb

> <SMILES>
OC(=O)CCCCCCC(O)=O

> <INCHI_IDENTIFIER>
InChI=1S/C8H14O4/c9-7(10)5-3-1-2-4-6-8(11)12/h1-6H2,(H,9,10)(H,11,12)

> <INCHI_KEY>
TYFQFVWCELRYAO-UHFFFAOYSA-N

> <FORMULA>
C8H14O4

> <MOLECULAR_WEIGHT>
174.1944

> <EXACT_MASS>
174.089208936

> <JCHEM_ACCEPTOR_COUNT>
4

> <JCHEM_AVERAGE_POLARIZABILITY>
18.40584675075635

> <JCHEM_BIOAVAILABILITY>
1

> <JCHEM_DONOR_COUNT>
2

> <JCHEM_FORMAL_CHARGE>
0

> <JCHEM_GHOSE_FILTER>
1

> <JCHEM_IUPAC>
octanedioic acid

> <ALOGPS_LOGP>
1.00

> <JCHEM_LOGP>
1.3797916926666662

> <ALOGPS_LOGS>
-1.48

> <JCHEM_MDDR_LIKE_RULE>
0

> <JCHEM_NUMBER_OF_RINGS>
0

> <JCHEM_PHYSIOLOGICAL_CHARGE>
-2

> <JCHEM_PKA>
4.902710375357985

> <JCHEM_PKA_STRONGEST_ACIDIC>
4.150544559190842

> <JCHEM_POLAR_SURFACE_AREA>
74.6

> <JCHEM_REFRACTIVITY>
41.941

> <JCHEM_ROTATABLE_BOND_COUNT>
7

> <JCHEM_RULE_OF_FIVE>
1

> <ALOGPS_SOLUBILITY>
5.80e+00 g/l

> <JCHEM_TRADITIONAL_IUPAC>
suberic acid

> <JCHEM_VEBER_RULE>
0

> <HMDB_ID>
HMDB00893

> <GENERIC_NAME>
Suberic acid

> <SYNONYMS>
1,6-Dicarboxyhexane; 1,6-Hexanedicarboxylate; 1,6-Hexanedicarboxylic acid; 1,8-Octanedioate; 1,8-Octanedioic acid; Cork acid; Hexamethylenedicarboxylate; Hexamethylenedicarboxylic acid; Octane-1,8-dioate; Octane-1,8-dioic acid; Octanedioate; Octanedioic acid; Suberate; Suberic acid

$$$$
