
  Mrv0541 02231216452D          

  4  3  0  0  0  0            999 V2000
    2.0625   -0.7145    0.0000 C   0  0  0  0  0  0  0  0  0  0  0  0
    1.2375   -0.7145    0.0000 C   0  0  0  0  0  0  0  0  0  0  0  0
    0.8250    0.0000    0.0000 C   0  0  0  0  0  0  0  0  0  0  0  0
    0.0000    0.0000    0.0000 O   0  0  0  0  0  0  0  0  0  0  0  0
  1  2  1  0  0  0  0
  2  3  1  0  0  0  0
  3  4  1  0  0  0  0
M  END
> <DATABASE_ID>
HMDB00820

> <DATABASE_NAME>
hmdb

> <SMILES>
CCCO

> <INCHI_IDENTIFIER>
InChI=1S/C3H8O/c1-2-3-4/h4H,2-3H2,1H3

> <INCHI_KEY>
BDERNNFJNOPAEC-UHFFFAOYSA-N

> <FORMULA>
C3H8O

> <MOLECULAR_WEIGHT>
60.095

> <EXACT_MASS>
60.057514878

> <JCHEM_ACCEPTOR_COUNT>
1

> <JCHEM_AVERAGE_POLARIZABILITY>
7.23483899170107

> <JCHEM_BIOAVAILABILITY>
1

> <JCHEM_DONOR_COUNT>
1

> <JCHEM_FORMAL_CHARGE>
0

> <JCHEM_GHOSE_FILTER>
0

> <JCHEM_IUPAC>
propan-1-ol

> <ALOGPS_LOGP>
0.21

> <JCHEM_LOGP>
0.3607532809999999

> <ALOGPS_LOGS>
0.81

> <JCHEM_MDDR_LIKE_RULE>
0

> <JCHEM_NUMBER_OF_RINGS>
0

> <JCHEM_PHYSIOLOGICAL_CHARGE>
0

> <JCHEM_PKA_STRONGEST_ACIDIC>
16.846621484175344

> <JCHEM_PKA_STRONGEST_BASIC>
-1.9910877628217039

> <JCHEM_POLAR_SURFACE_AREA>
20.23

> <JCHEM_REFRACTIVITY>
17.5339

> <JCHEM_ROTATABLE_BOND_COUNT>
1

> <JCHEM_RULE_OF_FIVE>
1

> <ALOGPS_SOLUBILITY>
3.91e+02 g/l

> <JCHEM_TRADITIONAL_IUPAC>
propanol

> <JCHEM_VEBER_RULE>
1

> <HMDB_ID>
HMDB00820

> <GENERIC_NAME>
Propyl alcohol

> <SYNONYMS>
1-Hydroxypropane; 1-Propanol; 1-Propyl alcohol; Ethylcarbinol; Hydroxypropane; N-Propan-1-ol; N-Propanol; Optal; Propan-1-ol; Propane-1-ol; Propanol; Propanol-1; Propanole; Propanolen; Propyl alcohol; Propylan-propyl alcohol; Propylic alcohol

$$$$
