128
  Mrv0541 02231214282D          

  9  8  0  0  1  0            999 V2000
    5.6655   -0.0784    0.0000 O   0  0  0  0  0  0  0  0  0  0  0  0
    2.0930    0.3341    0.0000 O   0  0  0  0  0  0  0  0  0  0  0  0
    4.9509    1.1592    0.0000 O   0  0  0  0  0  0  0  0  0  0  0  0
    2.8075   -0.9034    0.0000 O   0  0  0  0  0  0  0  0  0  0  0  0
    4.2365   -0.9034    0.0000 N   0  0  0  0  0  0  0  0  0  0  0  0
    4.2365   -0.0784    0.0000 C   0  0  1  0  0  0  0  0  0  0  0  0
    3.5220    0.3341    0.0000 C   0  0  0  0  0  0  0  0  0  0  0  0
    4.9509    0.3341    0.0000 C   0  0  0  0  0  0  0  0  0  0  0  0
    2.8075   -0.0784    0.0000 C   0  0  0  0  0  0  0  0  0  0  0  0
  1  8  1  0  0  0  0
  2  9  1  0  0  0  0
  3  8  2  0  0  0  0
  4  9  2  0  0  0  0
  6  5  1  1  0  0  0
  6  7  1  0  0  0  0
  6  8  1  0  0  0  0
  7  9  1  0  0  0  0
M  END
> <DATABASE_ID>
HMDB00191

> <DATABASE_NAME>
hmdb

> <SMILES>
N[C@@H](CC(O)=O)C(O)=O

> <INCHI_IDENTIFIER>
InChI=1S/C4H7NO4/c5-2(4(8)9)1-3(6)7/h2H,1,5H2,(H,6,7)(H,8,9)/t2-/m0/s1

> <INCHI_KEY>
CKLJMWTZIZZHCS-REOHCLBHSA-N

> <FORMULA>
C4H7NO4

> <MOLECULAR_WEIGHT>
133.1027

> <EXACT_MASS>
133.037507717

> <JCHEM_ACCEPTOR_COUNT>
5

> <JCHEM_AVERAGE_POLARIZABILITY>
11.284232994701322

> <JCHEM_BIOAVAILABILITY>
1

> <JCHEM_DONOR_COUNT>
3

> <JCHEM_FORMAL_CHARGE>
0

> <JCHEM_GHOSE_FILTER>
0

> <JCHEM_IUPAC>
(2S)-2-aminobutanedioic acid

> <ALOGPS_LOGP>
-3.52

> <JCHEM_LOGP>
-3.5037527551764525

> <ALOGPS_LOGS>
0.03

> <JCHEM_MDDR_LIKE_RULE>
0

> <JCHEM_NUMBER_OF_RINGS>
0

> <JCHEM_PHYSIOLOGICAL_CHARGE>
-1

> <JCHEM_PKA>
5.113750094894903

> <JCHEM_PKA_STRONGEST_ACIDIC>
1.7025435921010494

> <JCHEM_PKA_STRONGEST_BASIC>
9.614153755159162

> <JCHEM_POLAR_SURFACE_AREA>
100.61999999999999

> <JCHEM_REFRACTIVITY>
26.5327

> <JCHEM_ROTATABLE_BOND_COUNT>
3

> <JCHEM_RULE_OF_FIVE>
1

> <ALOGPS_SOLUBILITY>
1.42e+02 g/l

> <JCHEM_TRADITIONAL_IUPAC>
L-aspartic acid

> <JCHEM_VEBER_RULE>
0

> <HMDB_ID>
HMDB00191

> <GENERIC_NAME>
L-Aspartic acid

> <SYNONYMS>
 Asp; (+)-Aspartate; (+)-Aspartic acid; (2S)-Aspartate; (2S)-Aspartic acid; (L)-Aspartate; (L)-Aspartic acid; (R)-2-aminosuccinate; (S)-(+)-Aspartate; (S)-(+)-Aspartic acid; (S)-2-aminosuccinate; (S)-2-aminosuccinic acid; (S)-amino-Butanedioate; (S)-amino-Butanedioic acid; (S)-Aminobutanedioate; (S)-Aminobutanedioic acid; (S)-Aspartate; (S)-Aspartic acid; 2-Amino-3-methylsuccinate; 2-Amino-3-methylsuccinic acid; 2-Aminosuccinate; 2-Aminosuccinic acid; alpha-Aminosuccinate; alpha-Aminosuccinic acid; Aminosuccinate; Asparagate; Asparagic acid; Asparaginate; Asparaginic acid; Asparatate; Aspartate; H-Asp-OH; L-(+)-Aspartate; L-(+)-Aspartic acid; L-Aminosuccinate; L-Aminosuccinic acid; L-Asparagate; L-Asparagic acid; L-Asparaginate; L-Asparaginic acid; L-Aspartate

$$$$
