Myristic acid.mol
  Mrv0541 02231218452D          

 16 15  0  0  0  0            999 V2000
    3.9296    0.4125    0.0000 C   0  0  0  0  0  0  0  0  0  0  0  0
    3.9296   -0.4125    0.0000 C   0  0  0  0  0  0  0  0  0  0  0  0
    3.2151   -0.8250    0.0000 C   0  0  0  0  0  0  0  0  0  0  0  0
    2.5006   -0.4125    0.0000 C   0  0  0  0  0  0  0  0  0  0  0  0
    1.7862   -0.8250    0.0000 C   0  0  0  0  0  0  0  0  0  0  0  0
    1.0717   -0.4125    0.0000 C   0  0  0  0  0  0  0  0  0  0  0  0
    0.3572   -0.8250    0.0000 C   0  0  0  0  0  0  0  0  0  0  0  0
   -0.3572   -0.4125    0.0000 C   0  0  0  0  0  0  0  0  0  0  0  0
   -1.0717   -0.8250    0.0000 C   0  0  0  0  0  0  0  0  0  0  0  0
   -1.7862   -0.4125    0.0000 C   0  0  0  0  0  0  0  0  0  0  0  0
   -2.5006   -0.8250    0.0000 C   0  0  0  0  0  0  0  0  0  0  0  0
   -3.2151   -0.4125    0.0000 C   0  0  0  0  0  0  0  0  0  0  0  0
   -3.9296   -0.8250    0.0000 C   0  0  0  0  0  0  0  0  0  0  0  0
   -4.6441   -0.4125    0.0000 C   0  0  0  0  0  0  0  0  0  0  0  0
    3.2151    0.8250    0.0000 O   0  0  0  0  0  0  0  0  0  0  0  0
    4.6441    0.8250    0.0000 O   0  0  0  0  0  0  0  0  0  0  0  0
  1  2  1  0  0  0  0
  2  3  1  0  0  0  0
  3  4  1  0  0  0  0
  4  5  1  0  0  0  0
  5  6  1  0  0  0  0
  6  7  1  0  0  0  0
  7  8  1  0  0  0  0
  8  9  1  0  0  0  0
  9 10  1  0  0  0  0
 10 11  1  0  0  0  0
 11 12  1  0  0  0  0
 12 13  1  0  0  0  0
 13 14  1  0  0  0  0
  1 15  2  0  0  0  0
  1 16  1  0  0  0  0
M  END
> <DATABASE_ID>
HMDB00806

> <DATABASE_NAME>
hmdb

> <SMILES>
CCCCCCCCCCCCCC(O)=O

> <INCHI_IDENTIFIER>
InChI=1S/C14H28O2/c1-2-3-4-5-6-7-8-9-10-11-12-13-14(15)16/h2-13H2,1H3,(H,15,16)

> <INCHI_KEY>
TUNFSRHWOTWDNC-UHFFFAOYSA-N

> <FORMULA>
C14H28O2

> <MOLECULAR_WEIGHT>
228.3709

> <EXACT_MASS>
228.20893014

> <JCHEM_ACCEPTOR_COUNT>
2

> <JCHEM_AVERAGE_POLARIZABILITY>
30.096995398481567

> <JCHEM_BIOAVAILABILITY>
0

> <JCHEM_DONOR_COUNT>
1

> <JCHEM_FORMAL_CHARGE>
0

> <JCHEM_GHOSE_FILTER>
1

> <JCHEM_IUPAC>
tetradecanoic acid

> <ALOGPS_LOGP>
6.10

> <JCHEM_LOGP>
5.367445447666666

> <ALOGPS_LOGS>
-5.12

> <JCHEM_MDDR_LIKE_RULE>
0

> <JCHEM_NUMBER_OF_RINGS>
0

> <JCHEM_PHYSIOLOGICAL_CHARGE>
-1

> <JCHEM_PKA_STRONGEST_ACIDIC>
4.952019655228562

> <JCHEM_POLAR_SURFACE_AREA>
37.3

> <JCHEM_REFRACTIVITY>
67.88159999999999

> <JCHEM_ROTATABLE_BOND_COUNT>
12

> <JCHEM_RULE_OF_FIVE>
0

> <ALOGPS_SOLUBILITY>
1.72e-03 g/l

> <JCHEM_TRADITIONAL_IUPAC>
myristic acid

> <JCHEM_VEBER_RULE>
0

> <HMDB_ID>
HMDB00806

> <GENERIC_NAME>
Myristic acid

> <SYNONYMS>
1-Tridecanecarboxylate; 1-Tridecanecarboxylic acid; Crodacid; Myristate; Myristic acid; Myristic acid pure; Myristoate; Myristoic acid; N-Tetradecan-1-oate; N-Tetradecan-1-oic acid; N-Tetradecanoate; N-Tetradecanoic acid; Tetradecanoate; Tetradecanoic (Myristic) acid; Tetradecanoic acid

$$$$
