624
  Mrv0541 02231214492D          

 24 27  0  0  1  0            999 V2000
    7.1353    1.7429    0.0000 O   0  0  0  0  0  0  0  0  0  0  0  0
    1.6498   -1.8105    0.0000 O   0  0  0  0  0  0  0  0  0  0  0  0
    6.0985   -0.1176    0.0000 C   0  0  2  0  0  0  0  0  0  0  0  0
    6.0985    0.7073    0.0000 C   0  0  2  0  0  0  0  0  0  0  0  0
    5.3842   -0.5300    0.0000 C   0  0  1  0  0  0  0  0  0  0  0  0
    4.6697   -0.1176    0.0000 C   0  0  1  0  0  0  0  0  0  0  0  0
    3.9191   -0.5356    0.0000 C   0  0  2  0  0  0  0  0  0  0  0  0
    5.3842    1.1197    0.0000 C   0  0  0  0  0  0  0  0  0  0  0  0
    4.6697    0.7073    0.0000 C   0  0  0  0  0  0  0  0  0  0  0  0
    6.8790    0.9588    0.0000 C   0  0  2  0  0  0  0  0  0  0  0  0
    6.8790   -0.3689    0.0000 C   0  0  0  0  0  0  0  0  0  0  0  0
    5.3974   -1.3891    0.0000 C   0  0  0  0  0  0  0  0  0  0  0  0
    7.3604    0.2949    0.0000 C   0  0  0  0  0  0  0  0  0  0  0  0
    3.9125   -1.3948    0.0000 C   0  0  0  0  0  0  0  0  0  0  0  0
    4.6566   -1.8245    0.0000 C   0  0  0  0  0  0  0  0  0  0  0  0
    6.0985    1.5322    0.0000 C   0  0  0  0  0  0  0  0  0  0  0  0
    3.1546   -0.0703    0.0000 C   0  0  0  0  0  0  0  0  0  0  0  0
    3.9254    0.2893    0.0000 C   0  0  0  0  0  0  0  0  0  0  0  0
    2.3726   -0.5058    0.0000 C   0  0  0  0  0  0  0  0  0  0  0  0
    3.1409   -1.8482    0.0000 C   0  0  0  0  0  0  0  0  0  0  0  0
    2.3657   -1.4007    0.0000 C   0  0  0  0  0  0  0  0  0  0  0  0
    6.1683   -0.7738    0.0000 H   0  0  0  0  0  0  0  0  0  0  0  0
    5.9581   -0.8555    0.0000 H   0  0  0  0  0  0  0  0  0  0  0  0
    5.2413    0.2124    0.0000 H   0  0  0  0  0  0  0  0  0  0  0  0
 10  1  1  1  0  0  0
  2 21  2  0  0  0  0
  3  4  1  0  0  0  0
  3  5  1  0  0  0  0
  3 11  1  0  0  0  0
  3 22  1  6  0  0  0
  4  8  1  0  0  0  0
  4 10  1  0  0  0  0
  4 16  1  1  0  0  0
  5  6  1  0  0  0  0
  5 12  1  0  0  0  0
  5 23  1  1  0  0  0
  6  7  1  0  0  0  0
  6  9  1  0  0  0  0
  6 24  1  6  0  0  0
  7 14  1  0  0  0  0
  7 17  1  0  0  0  0
  7 18  1  1  0  0  0
  8  9  1  0  0  0  0
 10 13  1  0  0  0  0
 11 13  1  0  0  0  0
 12 15  1  0  0  0  0
 14 15  1  0  0  0  0
 14 20  2  0  0  0  0
 17 19  1  0  0  0  0
 19 21  1  0  0  0  0
 20 21  1  0  0  0  0
M  END
> <DATABASE_ID>
HMDB00234

> <DATABASE_NAME>
hmdb

> <SMILES>
[H][C@@]12CC[C@H](O)[C@@]1(C)CC[C@@]1([H])[C@@]2([H])CCC2=CC(=O)CC[C@]12C

> <INCHI_IDENTIFIER>
InChI=1S/C19H28O2/c1-18-9-7-13(20)11-12(18)3-4-14-15-5-6-17(21)19(15,2)10-8-16(14)18/h11,14-17,21H,3-10H2,1-2H3/t14-,15-,16-,17-,18-,19-/m0/s1

> <INCHI_KEY>
MUMGGOZAMZWBJJ-DYKIIFRCSA-N

> <FORMULA>
C19H28O2

> <MOLECULAR_WEIGHT>
288.4244

> <EXACT_MASS>
288.20893014

> <JCHEM_ACCEPTOR_COUNT>
2

> <JCHEM_AVERAGE_POLARIZABILITY>
34.02027513984652

> <JCHEM_BIOAVAILABILITY>
1

> <JCHEM_DONOR_COUNT>
1

> <JCHEM_FORMAL_CHARGE>
0

> <JCHEM_GHOSE_FILTER>
1

> <JCHEM_IUPAC>
(1S,2R,10R,11S,14S,15S)-14-hydroxy-2,15-dimethyltetracyclo[8.7.0.0²,⁷.0¹¹,¹⁵]heptadec-6-en-5-one

> <ALOGPS_LOGP>
2.99

> <JCHEM_LOGP>
3.365423297666668

> <ALOGPS_LOGS>
-3.94

> <JCHEM_MDDR_LIKE_RULE>
0

> <JCHEM_NUMBER_OF_RINGS>
4

> <JCHEM_PHYSIOLOGICAL_CHARGE>
0

> <JCHEM_PKA>
19.377705208106928

> <JCHEM_PKA_STRONGEST_ACIDIC>
19.08686012168563

> <JCHEM_PKA_STRONGEST_BASIC>
-0.883941123357545

> <JCHEM_POLAR_SURFACE_AREA>
37.3

> <JCHEM_REFRACTIVITY>
84.42979999999999

> <JCHEM_ROTATABLE_BOND_COUNT>
0

> <JCHEM_RULE_OF_FIVE>
1

> <ALOGPS_SOLUBILITY>
3.33e-02 g/l

> <JCHEM_TRADITIONAL_IUPAC>
testosterone

> <JCHEM_VEBER_RULE>
1

> <HMDB_ID>
HMDB00234

> <GENERIC_NAME>
Testosterone

> <SYNONYMS>
(+)-testosterone; (+-)-8-iso-testosterone; (+-)-retrotestosterone; (+-)-testosterone; (17b)-17-hydroxy-androst-4-en-3-one; 13-Iso-testosterone; 17-Hydroxy-10,13-dimethyl-1,2,6,7,8,9,10,11,12,13,14,15,16,17-tetradecahydro-cyclopenta[a]phenanthren-3-one; 17-Hydroxy-androst-4-en-3-one; 17-Hydroxy-D4-androsten-3-one; 17a-Hydroxy-(13a)-androst-4-en-3-one; 17a-Hydroxy-13a-androst-4-en-3-one; 17a-Hydroxy-14b-androst-4-en-3-one; 17a-Hydroxy-androst-4-en-3-one; 17b-Hydroxy-(10a)-androst-4-en-3-one; 17b-Hydroxy-(13a)-androst-4-en-3-one; 17b-Hydroxy-(8a)-androst-4-en-3-one; 17b-Hydroxy-(8a,10a)-androst-4-en-3-one; 17b-Hydroxy-(9b)-androst-4-en-3-one; 17b-Hydroxy-(9b,10a)-androst-4-en-3-one; 17b-Hydroxy-13a-androst-4-en-3-one; 17b-Hydroxy-8a-androst-4-en-3-one; 17b-Hydroxy-androst-4-en-3-on; 17b-Hydroxy-androst-4-en-3-one; 17b-Hydroxy-D4-androsten-3-one; 17b-Hydroxyandrost-4-en-3-one; 17b-Hydroxyandrost-4-ene-3-one; 17b-Testosterone; 4-Androsten-3-one-17b-ol; 8-Iso-testosterone; 9b,10a-Testosterone; 9b-Testosterone; Androderm; AndroGel; Androlin; Andronaq; Andropatch; Androst-4-en-17b-ol-3-one; Androst-4-ene-17b-ol-3-one; Andrusol; Cristerona T; D4-Androsten-17b-ol-3-one; Epitestosteron; Geno-cristaux Gremy; Homosteron; Homosterone; Lumitestosteron; Mertestate; Neotestis; Oreton; Orquisteron; Perandren; Percutacrine androgenique; Primotest; Primoteston; Rac-17b-hydroxy-(13a)androst-4-en-3-one; Rac-17b-hydroxy-(8a)-androst-4-en-3-one; Rac-17b-hydroxy-(9b,10a)androst-4-en-3-one; Rac-17b-hydroxy-androst-4-en-3-one; Relibra; Retrotestosterone; Sustanon; Sustanone; Sustason 250; Synandrol F; Teslen; Testandrone; Testiculosterone; Testim; Testobase; Testoderm; Testogel; Testolent; Testolin; Testopropon; Testosteroid; Testosteron; Testoviron Schering; Testoviron T; Testro AQ; Testrone; Testryl; Tostrelle; Tostrex; Viatrel; Virormone; Virosterone

$$$$
