
  Mrv0541 02231218322D          

 16 17  0  0  0  0            999 V2000
   12.8291  -10.3366    0.0000 O   0  0  0  0  0  0  0  0  0  0  0  0
   17.8804   -8.5891    0.0000 O   0  0  0  0  0  0  0  0  0  0  0  0
   16.5221   -8.1452    0.0000 O   0  0  0  0  0  0  0  0  0  0  0  0
   15.7532  -11.8256    0.0000 N   0  0  0  0  0  0  0  0  0  0  0  0
   17.3678  -10.1575    0.0000 N   0  0  0  0  0  0  0  0  0  0  0  0
   15.7532  -10.4977    0.0000 C   0  0  0  0  0  0  0  0  0  0  0  0
   16.0095   -9.7135    0.0000 C   0  0  0  0  0  0  0  0  0  0  0  0
   14.9726  -10.7491    0.0000 C   0  0  0  0  0  0  0  0  0  0  0  0
   16.8168   -9.5435    0.0000 C   0  0  0  0  0  0  0  0  0  0  0  0
   14.9726  -11.5741    0.0000 C   0  0  0  0  0  0  0  0  0  0  0  0
   16.2347  -11.1616    0.0000 C   0  0  0  0  0  0  0  0  0  0  0  0
   14.2581  -10.3366    0.0000 C   0  0  0  0  0  0  0  0  0  0  0  0
   14.2581  -11.9866    0.0000 C   0  0  0  0  0  0  0  0  0  0  0  0
   13.5436  -10.7491    0.0000 C   0  0  0  0  0  0  0  0  0  0  0  0
   13.5436  -11.5741    0.0000 C   0  0  0  0  0  0  0  0  0  0  0  0
   17.0731   -8.7591    0.0000 C   0  0  0  0  0  0  0  0  0  0  0  0
  1 14  1  0  0  0  0
  2 16  1  0  0  0  0
  3 16  2  0  0  0  0
  4 10  1  0  0  0  0
  4 11  1  0  0  0  0
  5  9  1  0  0  0  0
  6  7  1  0  0  0  0
  6  8  1  0  0  0  0
  6 11  2  0  0  0  0
  7  9  1  0  0  0  0
  8 10  2  0  0  0  0
  8 12  1  0  0  0  0
  9 16  1  0  0  0  0
 10 13  1  0  0  0  0
 12 14  2  0  0  0  0
 13 15  2  0  0  0  0
 14 15  1  0  0  0  0
M  END
> <DATABASE_ID>
HMDB00472

> <DATABASE_NAME>
hmdb

> <SMILES>
NC(CC1=CNC2=C1C=C(O)C=C2)C(O)=O

> <INCHI_IDENTIFIER>
InChI=1S/C11H12N2O3/c12-9(11(15)16)3-6-5-13-10-2-1-7(14)4-8(6)10/h1-2,4-5,9,13-14H,3,12H2,(H,15,16)

> <INCHI_KEY>
LDCYZAJDBXYCGN-UHFFFAOYSA-N

> <FORMULA>
C11H12N2O3

> <MOLECULAR_WEIGHT>
220.2246

> <EXACT_MASS>
220.08479226

> <JCHEM_ACCEPTOR_COUNT>
4

> <JCHEM_AVERAGE_POLARIZABILITY>
22.028091206528217

> <JCHEM_BIOAVAILABILITY>
1

> <JCHEM_DONOR_COUNT>
4

> <JCHEM_FORMAL_CHARGE>
0

> <JCHEM_GHOSE_FILTER>
0

> <JCHEM_IUPAC>
2-amino-3-(5-hydroxy-1H-indol-3-yl)propanoic acid

> <ALOGPS_LOGP>
-1.56

> <JCHEM_LOGP>
-1.3896984621581003

> <ALOGPS_LOGS>
-1.78

> <JCHEM_MDDR_LIKE_RULE>
0

> <JCHEM_NUMBER_OF_RINGS>
2

> <JCHEM_PHYSIOLOGICAL_CHARGE>
0

> <JCHEM_PKA>
9.79536661937528

> <JCHEM_PKA_STRONGEST_ACIDIC>
2.152663935897665

> <JCHEM_PKA_STRONGEST_BASIC>
9.18065085700301

> <JCHEM_POLAR_SURFACE_AREA>
99.33999999999999

> <JCHEM_REFRACTIVITY>
58.18370000000001

> <JCHEM_ROTATABLE_BOND_COUNT>
3

> <JCHEM_RULE_OF_FIVE>
1

> <ALOGPS_SOLUBILITY>
3.63e+00 g/l

> <JCHEM_TRADITIONAL_IUPAC>
DL-5-hydroxytryptophan

> <JCHEM_VEBER_RULE>
0

> <HMDB_ID>
HMDB00472

> <GENERIC_NAME>
5-Hydroxy-L-tryptophan

> <SYNONYMS>
(+-)-5-Hydroxytryptophan; (S)-5-Hydroxytryptophan; 5-Hydroxy-L-Tryptophan; 5-Hydroxy-tryptophan; 5-Hydroxyl-L-tryptophan; 5-Hydroxytryptophan; 5-Hydroxytryptophan L form; 5-Hydroxytryptophan L-form; Cincofarm; Hydroxytryptophan; L-5-Hydroxytryptophan; Levothym; Levotinine; Oxitriptan; Oxyfan; Oxytryptophan; Pretonine; Quietim; Serotonyl; Telesol; Triptene

$$$$
