
  Mrv0541 02231217382D          

 11 10  0  0  0  0            999 V2000
    4.3164    0.7145    0.0000 C   0  0  0  0  0  0  0  0  0  0  0  0
    3.9039    1.4289    0.0000 C   0  0  0  0  0  0  0  0  0  0  0  0
    3.4914    2.1434    0.0000 O   0  0  0  0  0  0  0  0  0  0  0  0
    3.1895    1.0164    0.0000 C   0  0  0  0  0  0  0  0  0  0  0  0
    2.4750    1.4289    0.0000 C   0  0  0  0  0  0  0  0  0  0  0  0
    1.7605    1.0164    0.0000 O   0  0  0  0  0  0  0  0  0  0  0  0
    2.4750    2.2539    0.0000 O   0  0  0  0  0  0  0  0  0  0  0  0
    4.6184    1.8414    0.0000 C   0  0  0  0  0  0  0  0  0  0  0  0
    5.3329    1.4289    0.0000 C   0  0  0  0  0  0  0  0  0  0  0  0
    6.0474    1.8414    0.0000 O   0  0  0  0  0  0  0  0  0  0  0  0
    5.3329    0.6039    0.0000 O   0  0  0  0  0  0  0  0  0  0  0  0
  1  2  1  0  0  0  0
  2  3  1  0  0  0  0
  2  4  1  0  0  0  0
  4  5  1  0  0  0  0
  5  6  1  0  0  0  0
  5  7  2  0  0  0  0
  2  8  1  0  0  0  0
  8  9  1  0  0  0  0
  9 10  1  0  0  0  0
  9 11  2  0  0  0  0
M  END
> <DATABASE_ID>
HMDB00355

> <DATABASE_NAME>
hmdb

> <SMILES>
CC(O)(CC(O)=O)CC(O)=O

> <INCHI_IDENTIFIER>
InChI=1S/C6H10O5/c1-6(11,2-4(7)8)3-5(9)10/h11H,2-3H2,1H3,(H,7,8)(H,9,10)

> <INCHI_KEY>
NPOAOTPXWNWTSH-UHFFFAOYSA-N

> <FORMULA>
C6H10O5

> <MOLECULAR_WEIGHT>
162.1406

> <EXACT_MASS>
162.05282343

> <JCHEM_ACCEPTOR_COUNT>
5

> <JCHEM_AVERAGE_POLARIZABILITY>
14.54514111204398

> <JCHEM_BIOAVAILABILITY>
1

> <JCHEM_DONOR_COUNT>
3

> <JCHEM_FORMAL_CHARGE>
0

> <JCHEM_GHOSE_FILTER>
0

> <JCHEM_IUPAC>
3-hydroxy-3-methylpentanedioic acid

> <ALOGPS_LOGP>
-0.88

> <JCHEM_LOGP>
-0.7482412409999999

> <ALOGPS_LOGS>
0.23

> <JCHEM_MDDR_LIKE_RULE>
0

> <JCHEM_NUMBER_OF_RINGS>
0

> <JCHEM_PHYSIOLOGICAL_CHARGE>
-2

> <JCHEM_PKA>
4.435120601836896

> <JCHEM_PKA_STRONGEST_ACIDIC>
3.6777896096277964

> <JCHEM_PKA_STRONGEST_BASIC>
-3.0082279564358467

> <JCHEM_POLAR_SURFACE_AREA>
94.83000000000001

> <JCHEM_REFRACTIVITY>
34.1377

> <JCHEM_ROTATABLE_BOND_COUNT>
4

> <JCHEM_RULE_OF_FIVE>
1

> <ALOGPS_SOLUBILITY>
2.75e+02 g/l

> <JCHEM_TRADITIONAL_IUPAC>
meglutol

> <JCHEM_VEBER_RULE>
0

> <HMDB_ID>
HMDB00355

> <GENERIC_NAME>
3-Hydroxymethylglutaric acid

> <SYNONYMS>
3-Hydroxy-3-methyl-Glutaric acid; 3-Hydroxy-3-methylglutarate; 3-Hydroxy-3-methylglutaric acid; 3-Hydroxymethylglutarate; 3-Hydroxymethylglutaric acid; 3-Methyl-3-hydroxyglutarate; 3-Methyl-3-hydroxyglutaric acid; b-Hydroxy-b-methylglutarate; b-Hydroxy-b-methylglutaric acid; beta-Hydroxy-beta-methylglutarate; beta-Hydroxy-beta-methylglutaric acid; CB 337; Dicrotalate; Dicrotalic acid

$$$$
