Untitled Document-3
  Mrv0541 02231218442D          

 14 15  0  0  0  0            999 V2000
   -1.5722    1.2041    0.0000 C   0  0  0  0  0  0  0  0  0  0  0  0
   -1.5722    0.3791    0.0000 C   0  0  0  0  0  0  0  0  0  0  0  0
   -0.8577   -0.0334    0.0000 C   0  0  0  0  0  0  0  0  0  0  0  0
   -0.1432    0.3791    0.0000 C   0  0  0  0  0  0  0  0  0  0  0  0
   -0.1432    1.2041    0.0000 C   0  0  0  0  0  0  0  0  0  0  0  0
   -0.8577    1.6166    0.0000 C   0  0  0  0  0  0  0  0  0  0  0  0
    0.6414    0.1242    0.0000 C   0  0  0  0  0  0  0  0  0  0  0  0
    1.1263    0.7916    0.0000 C   0  0  0  0  0  0  0  0  0  0  0  0
    0.6414    1.4590    0.0000 N   0  0  0  0  0  0  0  0  0  0  0  0
    0.8963   -0.6605    0.0000 C   0  0  0  0  0  0  0  0  0  0  0  0
    1.7033   -0.8320    0.0000 C   0  0  0  0  0  0  0  0  0  0  0  0
    1.9582   -1.6166    0.0000 O   0  0  0  0  0  0  0  0  0  0  0  0
    2.2867   -0.2486    0.0000 O   0  0  0  0  0  0  0  0  0  0  0  0
   -2.2867   -0.0334    0.0000 O   0  0  0  0  0  0  0  0  0  0  0  0
  1  2  2  0  0  0  0
  2  3  1  0  0  0  0
  3  4  2  0  0  0  0
  4  5  1  0  0  0  0
  5  6  2  0  0  0  0
  6  1  1  0  0  0  0
  4  7  1  0  0  0  0
  7  8  2  0  0  0  0
  8  9  1  0  0  0  0
  9  5  1  0  0  0  0
  7 10  1  0  0  0  0
 10 11  1  0  0  0  0
 11 12  1  0  0  0  0
 11 13  2  0  0  0  0
  2 14  1  0  0  0  0
M  END
> <DATABASE_ID>
HMDB00763

> <DATABASE_NAME>
hmdb

> <SMILES>
OC(=O)CC1=CNC2=CC=C(O)C=C12

> <INCHI_IDENTIFIER>
InChI=1S/C10H9NO3/c12-7-1-2-9-8(4-7)6(5-11-9)3-10(13)14/h1-2,4-5,11-12H,3H2,(H,13,14)

> <INCHI_KEY>
DUUGKQCEGZLZNO-UHFFFAOYSA-N

> <FORMULA>
C10H9NO3

> <MOLECULAR_WEIGHT>
191.1834

> <EXACT_MASS>
191.058243159

> <JCHEM_ACCEPTOR_COUNT>
3

> <JCHEM_AVERAGE_POLARIZABILITY>
18.706741125112696

> <JCHEM_BIOAVAILABILITY>
1

> <JCHEM_DONOR_COUNT>
3

> <JCHEM_FORMAL_CHARGE>
0

> <JCHEM_GHOSE_FILTER>
1

> <JCHEM_IUPAC>
2-(5-hydroxy-1H-indol-3-yl)acetic acid

> <ALOGPS_LOGP>
1.28

> <JCHEM_LOGP>
1.4061907766666666

> <ALOGPS_LOGS>
-2.03

> <JCHEM_MDDR_LIKE_RULE>
0

> <JCHEM_NUMBER_OF_RINGS>
2

> <JCHEM_PHYSIOLOGICAL_CHARGE>
-1

> <JCHEM_PKA>
9.558275552338404

> <JCHEM_PKA_STRONGEST_ACIDIC>
4.215990424188327

> <JCHEM_PKA_STRONGEST_BASIC>
-5.50801830576937

> <JCHEM_POLAR_SURFACE_AREA>
73.32

> <JCHEM_REFRACTIVITY>
50.433

> <JCHEM_ROTATABLE_BOND_COUNT>
2

> <JCHEM_RULE_OF_FIVE>
1

> <ALOGPS_SOLUBILITY>
1.80e+00 g/l

> <JCHEM_TRADITIONAL_IUPAC>
hydroxyindoleacetic acid

> <JCHEM_VEBER_RULE>
0

> <HMDB_ID>
HMDB00763

> <GENERIC_NAME>
5-Hydroxyindoleacetic acid

> <SYNONYMS>
5-HIAA; 5-Hydroxy-1H-indole-3-acetate; 5-Hydroxy-1H-indole-3-acetic acid; 5-Hydroxy-3-indolylacetate; 5-Hydroxy-IAA; 5-Hydroxy-Indole-3-acetate; 5-Hydroxy-Indole-3-acetic acid; 5-Hydroxyheteroauxin; 5-Hydroxyindol-3-ylacetate; 5-Hydroxyindol-3-ylacetic acid; 5-Hydroxyindole acetate; 5-Hydroxyindole-3-acetate; 5-Hydroxyindole-3-acetic acid; 5-Hydroxyindoleacetate; 5-Hydroxyindoleacetic acid; 5-Oxyindoleacetate; 5-Oxyindoleacetic acid; 5HIAA; Hydroxyindoleacetate

$$$$
