
  Mrv0541 02231217452D          

  7  6  0  0  0  0            999 V2000
    1.2375    2.1434    0.0000 C   0  0  0  0  0  0  0  0  0  0  0  0
    0.8250    1.4289    0.0000 C   0  0  0  0  0  0  0  0  0  0  0  0
    1.2375    0.7145    0.0000 C   0  0  0  0  0  0  0  0  0  0  0  0
    2.0625    0.7145    0.0000 O   0  0  0  0  0  0  0  0  0  0  0  0
    0.8250    0.0000    0.0000 C   0  0  0  0  0  0  0  0  0  0  0  0
    1.2375   -0.7145    0.0000 O   0  0  0  0  0  0  0  0  0  0  0  0
    0.0000    0.0000    0.0000 O   0  0  0  0  0  0  0  0  0  0  0  0
  1  2  1  0  0  0  0
  2  3  1  0  0  0  0
  3  4  2  0  0  0  0
  3  5  1  0  0  0  0
  5  6  1  0  0  0  0
  5  7  2  0  0  0  0
M  END
> <DATABASE_ID>
HMDB00005

> <DATABASE_NAME>
hmdb

> <SMILES>
CCC(=O)C(O)=O

> <INCHI_IDENTIFIER>
InChI=1S/C4H6O3/c1-2-3(5)4(6)7/h2H2,1H3,(H,6,7)

> <INCHI_KEY>
TYEYBOSBBBHJIV-UHFFFAOYSA-N

> <FORMULA>
C4H6O3

> <MOLECULAR_WEIGHT>
102.0886

> <EXACT_MASS>
102.031694058

> <JCHEM_ACCEPTOR_COUNT>
3

> <JCHEM_AVERAGE_POLARIZABILITY>
9.19944558001248

> <JCHEM_BIOAVAILABILITY>
1

> <JCHEM_DONOR_COUNT>
1

> <JCHEM_FORMAL_CHARGE>
0

> <JCHEM_GHOSE_FILTER>
0

> <JCHEM_IUPAC>
2-oxobutanoic acid

> <ALOGPS_LOGP>
0.07

> <JCHEM_LOGP>
0.7664098003333332

> <ALOGPS_LOGS>
-0.11

> <JCHEM_MDDR_LIKE_RULE>
0

> <JCHEM_NUMBER_OF_RINGS>
0

> <JCHEM_PHYSIOLOGICAL_CHARGE>
-1

> <JCHEM_PKA_STRONGEST_ACIDIC>
3.1869864284881544

> <JCHEM_PKA_STRONGEST_BASIC>
-9.650960797412663

> <JCHEM_POLAR_SURFACE_AREA>
54.37

> <JCHEM_REFRACTIVITY>
22.616600000000002

> <JCHEM_ROTATABLE_BOND_COUNT>
2

> <JCHEM_RULE_OF_FIVE>
1

> <ALOGPS_SOLUBILITY>
7.92e+01 g/l

> <JCHEM_TRADITIONAL_IUPAC>
2-oxobutanoic acid

> <JCHEM_VEBER_RULE>
0

> <HMDB_ID>
HMDB00005

> <GENERIC_NAME>
2-Ketobutyric acid

> <SYNONYMS>
2-Ketobutanoate; 2-Ketobutanoic acid; 2-Ketobutyrate; 2-Oxo-Butanoate; 2-Oxo-Butanoic acid; 2-Oxo-Butyrate; 2-Oxo-Butyric acid; 2-Oxo-N-butyrate; 2-Oxo-N-butyric acid; 2-Oxobutanoate; 2-Oxobutanoic acid; 2-Oxobutyrate; 2-Oxobutyric acid; 3-Methylpyruvate; 3-Methylpyruvic acid; a-Keto-N-Butyrate; a-Keto-N-Butyric acid; a-Ketobutyrate; a-Ketobutyric acid; a-Oxo-N-butyrate; a-Oxo-N-butyric acid; a-Oxobutyrate; a-Oxobutyric acid; alpha-Keto-N-butyrate; alpha-Keto-N-butyric acid; alpha-Ketobutric acid; alpha-Ketobutyrate; alpha-Ketobutyric acid; alpha-Oxo-N-butyrate; alpha-Oxo-N-butyric acid; alpha-Oxobutyrate; alpha-Oxobutyric acid; Methyl-Pyruvate; Methyl-Pyruvic acid; Propionyl-formate; Propionyl-formic acid

$$$$
