
  Mrv0541 02231219172D          

 13 13  0  0  0  0            999 V2000
   13.5127   -5.8550    0.0000 C   0  0  0  0  0  0  0  0  0  0  0  0
   14.2394   -5.4371    0.0000 O   0  0  0  0  0  0  0  0  0  0  0  0
   12.7991   -5.4478    0.0000 C   0  0  0  0  0  0  0  0  0  0  0  0
   13.5127   -6.6780    0.0000 C   0  0  0  0  0  0  0  0  0  0  0  0
   12.7991   -7.0960    0.0000 C   0  0  0  0  0  0  0  0  0  0  0  0
   12.0962   -5.8550    0.0000 C   0  0  0  0  0  0  0  0  0  0  0  0
   12.0962   -6.6780    0.0000 C   0  0  0  0  0  0  0  0  0  0  0  0
   14.2485   -7.2284    0.0000 O   0  0  0  0  0  0  0  0  0  0  0  0
   11.3700   -5.4365    0.0000 C   0  0  0  0  0  0  0  0  0  0  0  0
   11.3694   -4.5984    0.0000 C   0  0  0  0  0  0  0  0  0  0  0  0
   12.0949   -4.1788    0.0000 C   0  0  0  0  0  0  0  0  0  0  0  0
   12.0943   -3.3407    0.0000 O   0  0  0  0  0  0  0  0  0  0  0  0
   12.8211   -4.5974    0.0000 O   0  0  0  0  0  0  0  0  0  0  0  0
  2  1  1  0  0  0  0
  3  1  2  0  0  0  0
  4  1  1  0  0  0  0
  6  3  1  0  0  0  0
  5  4  2  0  0  0  0
  7  5  1  0  0  0  0
  7  6  2  0  0  0  0
  8  4  1  0  0  0  0
 10  9  2  0  0  0  0
  6  9  1  0  0  0  0
 12 11  2  0  0  0  0
 13 11  1  0  0  0  0
 10 11  1  0  0  0  0
M  END
> <DATABASE_ID>
HMDB01964

> <DATABASE_NAME>
hmdb

> <SMILES>
OC(=O)\C=C/C1=CC=C(O)C(O)=C1

> <INCHI_IDENTIFIER>
InChI=1S/C9H8O4/c10-7-3-1-6(5-8(7)11)2-4-9(12)13/h1-5,10-11H,(H,12,13)/b4-2-

> <INCHI_KEY>
QAIPRVGONGVQAS-RQOWECAXSA-N

> <FORMULA>
C9H8O4

> <MOLECULAR_WEIGHT>
180.1574

> <EXACT_MASS>
180.042258744

> <JCHEM_ACCEPTOR_COUNT>
4

> <JCHEM_AVERAGE_POLARIZABILITY>
17.131168091231768

> <JCHEM_BIOAVAILABILITY>
1

> <JCHEM_DONOR_COUNT>
3

> <JCHEM_FORMAL_CHARGE>
0

> <JCHEM_GHOSE_FILTER>
1

> <JCHEM_IUPAC>
(2Z)-3-(3,4-dihydroxyphenyl)prop-2-enoic acid

> <ALOGPS_LOGP>
1.67

> <JCHEM_LOGP>
1.5289556166666665

> <ALOGPS_LOGS>
-2.05

> <JCHEM_MDDR_LIKE_RULE>
0

> <JCHEM_NUMBER_OF_RINGS>
1

> <JCHEM_PHYSIOLOGICAL_CHARGE>
-1

> <JCHEM_PKA>
9.276436861456105

> <JCHEM_PKA_STRONGEST_ACIDIC>
3.143840947271056

> <JCHEM_PKA_STRONGEST_BASIC>
-6.283746523508147

> <JCHEM_POLAR_SURFACE_AREA>
77.76

> <JCHEM_REFRACTIVITY>
47.021699999999996

> <JCHEM_ROTATABLE_BOND_COUNT>
2

> <JCHEM_RULE_OF_FIVE>
1

> <ALOGPS_SOLUBILITY>
1.61e+00 g/l

> <JCHEM_TRADITIONAL_IUPAC>
caffeicacid

> <JCHEM_VEBER_RULE>
0

> <HMDB_ID>
HMDB01964

> <GENERIC_NAME>
Caffeic acid

> <SYNONYMS>
3,4-Dihydroxybenzeneacrylate; 3,4-Dihydroxybenzeneacrylic acid; 3,4-Dihydroxycinnamate; 3,4-Dihydroxycinnamic acid; Caffeate; Caffeic acid pure; Caffeicacid; cis-Caffeate; cis-Caffeic acid

$$$$
