HMDB00378.mol
  Mrv0541 02231218292D          

 17 16  0  0  0  0            999 V2000
   -1.0717    0.4125    0.0000 N   0  3  0  0  0  0  0  0  0  0  0  0
   -0.3572    0.0000    0.0000 C   0  0  0  0  0  0  0  0  0  0  0  0
    0.3572    0.4125    0.0000 C   0  0  0  0  0  0  0  0  0  0  0  0
    0.3572    1.2375    0.0000 C   0  0  0  0  0  0  0  0  0  0  0  0
    1.0717    0.0000    0.0000 O   0  0  0  0  0  0  0  0  0  0  0  0
    1.0717   -0.8250    0.0000 C   0  0  0  0  0  0  0  0  0  0  0  0
    0.3572   -1.2375    0.0000 C   0  0  0  0  0  0  0  0  0  0  0  0
    0.3572   -2.0625    0.0000 C   0  0  0  0  0  0  0  0  0  0  0  0
   -0.3572   -2.4750    0.0000 C   0  0  0  0  0  0  0  0  0  0  0  0
   -0.3572   -0.8250    0.0000 C   0  0  0  0  0  0  0  0  0  0  0  0
    1.7862   -1.2375    0.0000 O   0  0  0  0  0  0  0  0  0  0  0  0
   -1.7862    0.0000    0.0000 C   0  0  0  0  0  0  0  0  0  0  0  0
   -1.6020    1.0445    0.0000 C   0  0  0  0  0  0  0  0  0  0  0  0
   -0.5414    1.0445    0.0000 C   0  0  0  0  0  0  0  0  0  0  0  0
    1.0717    1.6500    0.0000 C   0  0  0  0  0  0  0  0  0  0  0  0
    1.7862    1.2375    0.0000 O   0  5  0  0  0  0  0  0  0  0  0  0
    1.0717    2.4750    0.0000 O   0  0  0  0  0  0  0  0  0  0  0  0
  1  2  1  0  0  0  0
  2  3  1  0  0  0  0
  3  4  1  0  0  0  0
  3  5  1  0  0  0  0
  5  6  1  0  0  0  0
  6  7  1  0  0  0  0
  7  8  1  0  0  0  0
  8  9  1  0  0  0  0
  7 10  1  0  0  0  0
  6 11  2  0  0  0  0
  1 12  1  0  0  0  0
  1 13  1  0  0  0  0
  1 14  1  0  0  0  0
  4 15  1  0  0  0  0
 15 16  1  0  0  0  0
 15 17  2  0  0  0  0
M  CHG  2   1   1  16  -1
M  END
> <DATABASE_ID>
HMDB00378

> <DATABASE_NAME>
hmdb

> <SMILES>
CCC(C)C(=O)OC(CC([O-])=O)C[N+](C)(C)C

> <INCHI_IDENTIFIER>
InChI=1S/C12H23NO4/c1-6-9(2)12(16)17-10(7-11(14)15)8-13(3,4)5/h9-10H,6-8H2,1-5H3

> <INCHI_KEY>
IHCPDBBYTYJYIL-UHFFFAOYSA-N

> <FORMULA>
C12H23NO4

> <MOLECULAR_WEIGHT>
245.3153

> <EXACT_MASS>
245.162708229

> <JCHEM_ACCEPTOR_COUNT>
3

> <JCHEM_AVERAGE_POLARIZABILITY>
26.51429356499785

> <JCHEM_BIOAVAILABILITY>
1

> <JCHEM_DONOR_COUNT>
0

> <JCHEM_FORMAL_CHARGE>
0

> <JCHEM_GHOSE_FILTER>
0

> <JCHEM_IUPAC>
3-[(2-methylbutanoyl)oxy]-4-(trimethylazaniumyl)butanoate

> <ALOGPS_LOGP>
-2.00

> <JCHEM_LOGP>
-2.758289847471746

> <ALOGPS_LOGS>
-4.07

> <JCHEM_MDDR_LIKE_RULE>
0

> <JCHEM_NUMBER_OF_RINGS>
0

> <JCHEM_PHYSIOLOGICAL_CHARGE>
0

> <JCHEM_PKA_STRONGEST_ACIDIC>
4.342854307487348

> <JCHEM_PKA_STRONGEST_BASIC>
-7.092942553084254

> <JCHEM_POLAR_SURFACE_AREA>
66.43

> <JCHEM_REFRACTIVITY>
86.4392

> <JCHEM_ROTATABLE_BOND_COUNT>
8

> <JCHEM_RULE_OF_FIVE>
1

> <ALOGPS_SOLUBILITY>
2.54e-02 g/l

> <JCHEM_TRADITIONAL_IUPAC>
2-methylbutyroylcarnitine

> <JCHEM_VEBER_RULE>
0

> <HMDB_ID>
HMDB00378

> <GENERIC_NAME>
2-Methylbutyroylcarnitine

> <SYNONYMS>
(2-methylbutyryl)carnitine; 2-Methylbutyroylcarnitine; L-2-Methylbutyrate (3-carboxy-2-hydroxypropyl)trimethyl-hydroxide Ammonium inner salt; Methylbutyroyl-carnitine

$$$$
