139
  Mrv0541 02231214282D          

  8  7  0  0  0  0            999 V2000
    2.0928    0.2063    0.0000 O   0  0  0  0  0  0  0  0  0  0  0  0
    5.6650   -0.2063    0.0000 O   0  0  0  0  0  0  0  0  0  0  0  0
    2.8072   -1.0312    0.0000 O   0  0  0  0  0  0  0  0  0  0  0  0
    4.9504    1.0312    0.0000 O   0  0  0  0  0  0  0  0  0  0  0  0
    3.5217    0.2063    0.0000 C   0  0  0  0  0  0  0  0  0  0  0  0
    4.2361   -0.2063    0.0000 C   0  0  0  0  0  0  0  0  0  0  0  0
    2.8072   -0.2063    0.0000 C   0  0  0  0  0  0  0  0  0  0  0  0
    4.9504    0.2063    0.0000 C   0  0  0  0  0  0  0  0  0  0  0  0
  1  7  1  0  0  0  0
  2  8  1  0  0  0  0
  3  7  2  0  0  0  0
  4  8  2  0  0  0  0
  5  6  1  0  0  0  0
  5  7  1  0  0  0  0
  6  8  1  0  0  0  0
M  END
> <DATABASE_ID>
HMDB00254

> <DATABASE_NAME>
hmdb

> <SMILES>
OC(=O)CCC(O)=O

> <INCHI_IDENTIFIER>
InChI=1S/C4H6O4/c5-3(6)1-2-4(7)8/h1-2H2,(H,5,6)(H,7,8)

> <INCHI_KEY>
KDYFGRWQOYBRFD-UHFFFAOYSA-N

> <FORMULA>
C4H6O4

> <MOLECULAR_WEIGHT>
118.088

> <EXACT_MASS>
118.02660868

> <JCHEM_ACCEPTOR_COUNT>
4

> <JCHEM_AVERAGE_POLARIZABILITY>
10.141334051490274

> <JCHEM_BIOAVAILABILITY>
1

> <JCHEM_DONOR_COUNT>
2

> <JCHEM_FORMAL_CHARGE>
0

> <JCHEM_GHOSE_FILTER>
0

> <JCHEM_IUPAC>
butanedioic acid

> <ALOGPS_LOGP>
-0.53

> <JCHEM_LOGP>
-0.3984829673333332

> <ALOGPS_LOGS>
0.25

> <JCHEM_MDDR_LIKE_RULE>
0

> <JCHEM_NUMBER_OF_RINGS>
0

> <JCHEM_PHYSIOLOGICAL_CHARGE>
-2

> <JCHEM_PKA>
5.6869121792916

> <JCHEM_PKA_STRONGEST_ACIDIC>
3.554166510976347

> <JCHEM_POLAR_SURFACE_AREA>
74.6

> <JCHEM_REFRACTIVITY>
23.537

> <JCHEM_ROTATABLE_BOND_COUNT>
3

> <JCHEM_RULE_OF_FIVE>
1

> <ALOGPS_SOLUBILITY>
2.11e+02 g/l

> <JCHEM_TRADITIONAL_IUPAC>
succinic acid

> <JCHEM_VEBER_RULE>
0

> <HMDB_ID>
HMDB00254

> <GENERIC_NAME>
Succinic acid

> <SYNONYMS>
1,2-Ethanedicarboxylate; 1,2-Ethanedicarboxylic acid; 1,4-Butanedioate; 1,4-Butanedioic acid; Amber acid; Asuccin; Dihydrofumarate; Dihydrofumaric acid; Katasuccin; Succinate; Wormwood acid

$$$$
