874
  Mrv0541 02231215042D          

 14 14  0  0  1  0            999 V2000
    3.7935   -0.1279    0.0000 O   0  0  0  0  0  0  0  0  0  0  0  0
    3.7935    1.5222    0.0000 O   0  0  0  0  0  0  0  0  0  0  0  0
    5.2224    2.3472    0.0000 O   0  0  0  0  0  0  0  0  0  0  0  0
    2.3645   -0.9529    0.0000 O   0  0  0  0  0  0  0  0  0  0  0  0
    4.5080    1.1096    0.0000 C   0  0  0  0  0  0  0  0  0  0  0  0
    4.5080    0.2846    0.0000 C   0  0  0  0  0  0  0  0  0  0  0  0
    5.2224    1.5222    0.0000 C   0  0  0  0  0  0  0  0  0  0  0  0
    3.7935   -0.9529    0.0000 C   0  0  0  0  0  0  0  0  0  0  0  0
    3.0791   -1.3654    0.0000 C   0  0  0  0  0  0  0  0  0  0  0  0
    4.5080   -1.3654    0.0000 C   0  0  0  0  0  0  0  0  0  0  0  0
    3.0791   -2.1904    0.0000 C   0  0  0  0  0  0  0  0  0  0  0  0
    4.5080   -2.1904    0.0000 C   0  0  0  0  0  0  0  0  0  0  0  0
    3.7935   -2.6029    0.0000 C   0  0  0  0  0  0  0  0  0  0  0  0
    1.6500   -1.3654    0.0000 C   0  0  0  0  0  0  0  0  0  0  0  0
  1  6  1  0  0  0  0
  1  8  1  0  0  0  0
  2  5  1  0  0  0  0
  3  7  1  0  0  0  0
  4  9  1  0  0  0  0
  4 14  1  0  0  0  0
  5  6  1  0  0  0  0
  5  7  1  0  0  0  0
  8  9  1  0  0  0  0
  8 10  2  0  0  0  0
  9 11  2  0  0  0  0
 10 12  1  0  0  0  0
 11 13  1  0  0  0  0
 12 13  2  0  0  0  0
M  END
> <DATABASE_ID>
HMDB04998

> <DATABASE_NAME>
hmdb

> <SMILES>
COC1=CC=CC=C1OCC(O)CO

> <INCHI_IDENTIFIER>
InChI=1S/C10H14O4/c1-13-9-4-2-3-5-10(9)14-7-8(12)6-11/h2-5,8,11-12H,6-7H2,1H3

> <INCHI_KEY>
HSRJKNPTNIJEKV-UHFFFAOYSA-N

> <FORMULA>
C10H14O4

> <MOLECULAR_WEIGHT>
198.2158

> <EXACT_MASS>
198.089208936

> <JCHEM_ACCEPTOR_COUNT>
4

> <JCHEM_AVERAGE_POLARIZABILITY>
20.591929766068

> <JCHEM_BIOAVAILABILITY>
1

> <JCHEM_DONOR_COUNT>
2

> <JCHEM_FORMAL_CHARGE>
0

> <JCHEM_GHOSE_FILTER>
1

> <JCHEM_IUPAC>
3-(2-methoxyphenoxy)propane-1,2-diol

> <ALOGPS_LOGP>
0.76

> <JCHEM_LOGP>
0.33746633066666665

> <ALOGPS_LOGS>
-1.12

> <JCHEM_MDDR_LIKE_RULE>
0

> <JCHEM_NUMBER_OF_RINGS>
1

> <JCHEM_PHYSIOLOGICAL_CHARGE>
0

> <JCHEM_PKA>
15.562404965443942

> <JCHEM_PKA_STRONGEST_ACIDIC>
13.624144565278591

> <JCHEM_PKA_STRONGEST_BASIC>
-2.968617563618232

> <JCHEM_POLAR_SURFACE_AREA>
58.92

> <JCHEM_REFRACTIVITY>
51.239200000000004

> <JCHEM_ROTATABLE_BOND_COUNT>
5

> <JCHEM_RULE_OF_FIVE>
1

> <ALOGPS_SOLUBILITY>
1.49e+01 g/l

> <JCHEM_TRADITIONAL_IUPAC>
guaifenesin

> <JCHEM_VEBER_RULE>
0

> <HMDB_ID>
HMDB04998

> <GENERIC_NAME>
Guaifenesin

> <SYNONYMS>
3-(2-Methoxyphenoxy)-1,2-propanediol; 3-(O-Methoxyphenoxy)-1,2-propanediol; 3-(O-Methoxyphenoxy)-propanediol-1,2; 3-O-Methoxyphenoxypropane 1:2-diol; a-Glyceryl guaiacol ether; a-Glyceryl guaiacolate ether; Actifed C; Aeronesin; alpha-Glyceryl guaiacol ether; alpha-Glyceryl guaiacolate ether; Amonidren; Amonidrin; Aresol; Benylin-E; Bronchol; Glycerin ether; Glycerin guaiacolate; Glycero-guaiacol ether; Glycerol a-(2-methoxyphenyl) ether; Glycerol a-(O-methoxyphenyl)ether; Glycerol a-guaiacyl ether; Glycerol a-guiacyl ether; Glycerol a-monoguaiacol ether; Glycerol guaiacolate; Glycerol mono(2-methoxyphenyl) ether; Glycerol-a-guajakolether; Glycerol-alpha-guajakolether; Glyceryl guaiacol; Glyceryl guaiacol ether; Glyceryl guaiacolate; Glyceryl guaiacolate ether; Glyceryl guaiacyl ether; Glyceryl guaicolate; Glyceryl guiacolate; Glycerylguaiacol; Guaiacol glycerol ether; Guaiacol glyceryl ether; Guaiacolglicerinetere; Guaiacuran; Guaiacurane; Guaiacyl glyceryl ether; Guaiamar; Guaianesin; Guaicol glycerine ether; Guaicol glyceryl ether; Guaifenesin; Guaifenesine; Guaiphenesin; Guaiphenesine; Guaiphesin; Methoxypropanediol; Methphenoxydiol; Metossipropandiolo; O-Methoxyphenyl glyceryl ether; Organidin NR; p-Cresyl acetate; Pneumomist; Propanosedyl; Reduton

$$$$
