Dimethylamine.mol
  Mrv0541 02231218202D          

  3  2  0  0  0  0            999 V2000
    0.0000    0.2062    0.0000 N   0  0  0  0  0  0  0  0  0  0  0  0
    0.7145   -0.2062    0.0000 C   0  0  0  0  0  0  0  0  0  0  0  0
   -0.7145   -0.2062    0.0000 C   0  0  0  0  0  0  0  0  0  0  0  0
  1  2  1  0  0  0  0
  1  3  1  0  0  0  0
M  END
> <DATABASE_ID>
HMDB00087

> <DATABASE_NAME>
hmdb

> <SMILES>
CNC

> <INCHI_IDENTIFIER>
InChI=1S/C2H7N/c1-3-2/h3H,1-2H3

> <INCHI_KEY>
ROSDSFDQCJNGOL-UHFFFAOYSA-N

> <FORMULA>
C2H7N

> <MOLECULAR_WEIGHT>
45.0837

> <EXACT_MASS>
45.057849229

> <JCHEM_ACCEPTOR_COUNT>
1

> <JCHEM_AVERAGE_POLARIZABILITY>
5.7548177246013354

> <JCHEM_BIOAVAILABILITY>
1

> <JCHEM_DONOR_COUNT>
1

> <JCHEM_FORMAL_CHARGE>
0

> <JCHEM_GHOSE_FILTER>
0

> <JCHEM_IUPAC>
dimethylamine

> <ALOGPS_LOGP>
-0.53

> <JCHEM_LOGP>
-0.19287847166666677

> <ALOGPS_LOGS>
1.06

> <JCHEM_MDDR_LIKE_RULE>
0

> <JCHEM_NUMBER_OF_RINGS>
0

> <JCHEM_PHYSIOLOGICAL_CHARGE>
1

> <JCHEM_PKA_STRONGEST_BASIC>
10.522579829086101

> <JCHEM_POLAR_SURFACE_AREA>
12.03

> <JCHEM_REFRACTIVITY>
14.6934

> <JCHEM_ROTATABLE_BOND_COUNT>
0

> <JCHEM_RULE_OF_FIVE>
1

> <ALOGPS_SOLUBILITY>
5.16e+02 g/l

> <JCHEM_TRADITIONAL_IUPAC>
dimethylamine

> <JCHEM_VEBER_RULE>
1

> <HMDB_ID>
HMDB00087

> <GENERIC_NAME>
Dimethylamine

> <SYNONYMS>
Dimethylamine; Dimethylamine anhydrous; Dimethylamine anhydrous (dot); Dimethylamine aqueous solution; Dimethylamine hydrobromide; Dimethylamine solution; N,N-Dimethylamine; N-Methyl-Methanamine; N-Methylmethanamine; N-Methylmethanamine (ACD/Name 4.0)

$$$$
