Sphingosine-1-phosphate.mol
  Mrv0541 02231218252D          

 21 20  0  0  0  0            999 V2000
   -6.4302   -0.2062    0.0000 O   0  0  0  0  0  0  0  0  0  0  0  0
   -5.7158    0.2062    0.0000 C   0  0  0  0  0  0  0  0  0  0  0  0
   -5.0013   -0.2062    0.0000 C   0  0  0  0  0  0  0  0  0  0  0  0
   -5.0013   -1.0313    0.0000 N   0  0  0  0  0  0  0  0  0  0  0  0
   -4.2868    0.2062    0.0000 C   0  0  0  0  0  0  0  0  0  0  0  0
   -4.2868    1.0313    0.0000 O   0  0  0  0  0  0  0  0  0  0  0  0
   -3.5724   -0.2062    0.0000 C   0  0  0  0  0  0  0  0  0  0  0  0
   -2.8579    0.2062    0.0000 C   0  0  0  0  0  0  0  0  0  0  0  0
   -2.1434   -0.2062    0.0000 C   0  0  0  0  0  0  0  0  0  0  0  0
   -1.4289    0.2062    0.0000 C   0  0  0  0  0  0  0  0  0  0  0  0
   -0.7145   -0.2062    0.0000 C   0  0  0  0  0  0  0  0  0  0  0  0
    0.0000    0.2062    0.0000 C   0  0  0  0  0  0  0  0  0  0  0  0
    0.7145   -0.2062    0.0000 C   0  0  0  0  0  0  0  0  0  0  0  0
    1.4289    0.2062    0.0000 C   0  0  0  0  0  0  0  0  0  0  0  0
    2.1434   -0.2062    0.0000 C   0  0  0  0  0  0  0  0  0  0  0  0
    2.8579    0.2062    0.0000 C   0  0  0  0  0  0  0  0  0  0  0  0
    3.5724   -0.2062    0.0000 C   0  0  0  0  0  0  0  0  0  0  0  0
    4.2868    0.2062    0.0000 C   0  0  0  0  0  0  0  0  0  0  0  0
    5.0013   -0.2062    0.0000 C   0  0  0  0  0  0  0  0  0  0  0  0
    5.7158    0.2062    0.0000 C   0  0  0  0  0  0  0  0  0  0  0  0
    6.4302   -0.2062    0.0000 C   0  0  0  0  0  0  0  0  0  0  0  0
  1  2  1  0  0  0  0
  2  3  1  0  0  0  0
  3  4  1  0  0  0  0
  3  5  1  0  0  0  0
  5  6  1  0  0  0  0
  5  7  1  0  0  0  0
  7  8  2  0  0  0  0
  8  9  1  0  0  0  0
  9 10  1  0  0  0  0
 10 11  1  0  0  0  0
 11 12  1  0  0  0  0
 12 13  1  0  0  0  0
 13 14  1  0  0  0  0
 14 15  1  0  0  0  0
 15 16  1  0  0  0  0
 16 17  1  0  0  0  0
 17 18  1  0  0  0  0
 18 19  1  0  0  0  0
 19 20  1  0  0  0  0
 20 21  1  0  0  0  0
M  END
> <DATABASE_ID>
HMDB00252

> <DATABASE_NAME>
hmdb

> <SMILES>
CCCCCCCCCCCCC\C=C\C(O)C(N)CO

> <INCHI_IDENTIFIER>
InChI=1S/C18H37NO2/c1-2-3-4-5-6-7-8-9-10-11-12-13-14-15-18(21)17(19)16-20/h14-15,17-18,20-21H,2-13,16,19H2,1H3/b15-14+

> <INCHI_KEY>
WWUZIQQURGPMPG-CCEZHUSRSA-N

> <FORMULA>
C18H37NO2

> <MOLECULAR_WEIGHT>
299.4919

> <EXACT_MASS>
299.282429433

> <JCHEM_ACCEPTOR_COUNT>
3

> <JCHEM_AVERAGE_POLARIZABILITY>
39.3849265922203

> <JCHEM_BIOAVAILABILITY>
1

> <JCHEM_DONOR_COUNT>
3

> <JCHEM_FORMAL_CHARGE>
0

> <JCHEM_GHOSE_FILTER>
1

> <JCHEM_IUPAC>
(4E)-2-aminooctadec-4-ene-1,3-diol

> <ALOGPS_LOGP>
5.15

> <JCHEM_LOGP>
4.5665800486666654

> <ALOGPS_LOGS>
-4.89

> <JCHEM_MDDR_LIKE_RULE>
0

> <JCHEM_NUMBER_OF_RINGS>
0

> <JCHEM_PHYSIOLOGICAL_CHARGE>
1

> <JCHEM_PKA>
15.19039459699287

> <JCHEM_PKA_STRONGEST_ACIDIC>
14.116140546669914

> <JCHEM_PKA_STRONGEST_BASIC>
9.234294901231742

> <JCHEM_POLAR_SURFACE_AREA>
66.48

> <JCHEM_REFRACTIVITY>
91.892

> <JCHEM_ROTATABLE_BOND_COUNT>
15

> <JCHEM_RULE_OF_FIVE>
1

> <ALOGPS_SOLUBILITY>
3.90e-03 g/l

> <JCHEM_TRADITIONAL_IUPAC>
sphingosine

> <JCHEM_VEBER_RULE>
0

> <HMDB_ID>
HMDB00252

> <GENERIC_NAME>
Sphingosine

> <SYNONYMS>
(-)-D-erythro-Sphingosine; (2S,3R)-Sphingosine; (2S,3R,4E)-2-Amino-4-octadecene-1,3-diol; (4E)-Sphingenine; 4-Sphingenine; 4-trans-Sphingenine; [R-[R*,S*-(E)]]-2-amino-4-Octadecene-1,3-diol

$$$$
