
  Mrv0541 02231219342D          

  8  8  0  0  1  0            999 V2000
   15.3897   -8.8980    0.0000 C   0  0  0  0  0  0  0  0  0  0  0  0
   15.6169   -9.6911    0.0000 C   0  0  1  0  0  0  0  0  0  0  0  0
   16.4414   -9.7201    0.0000 C   0  0  1  0  0  0  0  0  0  0  0  0
   16.7238   -8.9450    0.0000 C   0  0  0  0  0  0  0  0  0  0  0  0
   16.0738   -8.4368    0.0000 O   0  0  0  0  0  0  0  0  0  0  0  0
   14.6145   -8.6156    0.0000 O   0  0  0  0  0  0  0  0  0  0  0  0
   15.1087  -10.3411    0.0000 O   0  0  0  0  0  0  0  0  0  0  0  0
   16.9025  -10.4043    0.0000 O   0  0  0  0  0  0  0  0  0  0  0  0
  1  2  1  0  0  0  0
  2  3  1  0  0  0  0
  3  4  1  0  0  0  0
  4  5  1  0  0  0  0
  5  1  1  0  0  0  0
  1  6  1  0  0  0  0
  2  7  1  1  0  0  0
  3  8  1  1  0  0  0
M  END
> <DATABASE_ID>
HMDB02649

> <DATABASE_NAME>
hmdb

> <SMILES>
O[C@@H]1COC(O)[C@@H]1O

> <INCHI_IDENTIFIER>
InChI=1S/C4H8O4/c5-2-1-8-4(7)3(2)6/h2-7H,1H2/t2-,3-,4?/m1/s1

> <INCHI_KEY>
FMAORJIQYMIRHF-HERZVMAMSA-N

> <FORMULA>
C4H8O4

> <MOLECULAR_WEIGHT>
120.1039

> <EXACT_MASS>
120.042258744

> <JCHEM_ACCEPTOR_COUNT>
4

> <JCHEM_AVERAGE_POLARIZABILITY>
10.713258083458394

> <JCHEM_BIOAVAILABILITY>
1

> <JCHEM_DONOR_COUNT>
3

> <JCHEM_FORMAL_CHARGE>
0

> <JCHEM_GHOSE_FILTER>
0

> <JCHEM_IUPAC>
(3R,4R)-oxolane-2,3,4-triol

> <ALOGPS_LOGP>
-2.30

> <JCHEM_LOGP>
-1.671869334

> <ALOGPS_LOGS>
1.08

> <JCHEM_MDDR_LIKE_RULE>
0

> <JCHEM_NUMBER_OF_RINGS>
1

> <JCHEM_PHYSIOLOGICAL_CHARGE>
0

> <JCHEM_PKA>
13.052554670413375

> <JCHEM_PKA_STRONGEST_ACIDIC>
11.32050975209086

> <JCHEM_PKA_STRONGEST_BASIC>
-3.5572951827239905

> <JCHEM_POLAR_SURFACE_AREA>
69.92

> <JCHEM_REFRACTIVITY>
23.998399999999997

> <JCHEM_ROTATABLE_BOND_COUNT>
0

> <JCHEM_RULE_OF_FIVE>
1

> <ALOGPS_SOLUBILITY>
1.43e+03 g/l

> <JCHEM_TRADITIONAL_IUPAC>
D-erythro-tetrose

> <JCHEM_VEBER_RULE>
0

> <HMDB_ID>
HMDB02649

> <GENERIC_NAME>
Erythrose

> <SYNONYMS>
(R*,R*)-2,3,4-Trihydroxybutanal; D-Erythro-tetrose; D-Erythrose; L-Threo-aldose ; L-Threose; LTr; Threose

$$$$
