
  Mrv0541 02231218272D          

 11 10  0  0  0  0            999 V2000
   15.1678  -14.5880    0.0000 O   0  0  0  0  0  0  0  0  0  0  0  0
   16.5967  -13.7630    0.0000 O   0  0  0  0  0  0  0  0  0  0  0  0
   11.5953  -13.3505    0.0000 O   0  0  0  0  0  0  0  0  0  0  0  0
   15.8822  -12.5254    0.0000 O   0  0  0  0  0  0  0  0  0  0  0  0
   12.3098  -14.5880    0.0000 O   0  0  0  0  0  0  0  0  0  0  0  0
   14.4532  -13.3505    0.0000 C   0  0  0  0  0  0  0  0  0  0  0  0
   13.7388  -13.7630    0.0000 C   0  0  0  0  0  0  0  0  0  0  0  0
   15.1678  -13.7630    0.0000 C   0  0  0  0  0  0  0  0  0  0  0  0
   13.0243  -13.3505    0.0000 C   0  0  0  0  0  0  0  0  0  0  0  0
   15.8822  -13.3505    0.0000 C   0  0  0  0  0  0  0  0  0  0  0  0
   12.3098  -13.7630    0.0000 C   0  0  0  0  0  0  0  0  0  0  0  0
  1  8  1  0  0  0  0
  2 10  1  0  0  0  0
  3 11  1  0  0  0  0
  4 10  2  0  0  0  0
  5 11  2  0  0  0  0
  6  7  1  0  0  0  0
  6  8  1  0  0  0  0
  7  9  1  0  0  0  0
  8 10  1  0  0  0  0
  9 11  1  0  0  0  0
M  END
> <DATABASE_ID>
HMDB00321

> <DATABASE_NAME>
hmdb

> <SMILES>
OC(CCCC(O)=O)C(O)=O

> <INCHI_IDENTIFIER>
InChI=1S/C6H10O5/c7-4(6(10)11)2-1-3-5(8)9/h4,7H,1-3H2,(H,8,9)(H,10,11)

> <INCHI_KEY>
OTTXIFWBPRRYOG-UHFFFAOYSA-N

> <FORMULA>
C6H10O5

> <MOLECULAR_WEIGHT>
162.1406

> <EXACT_MASS>
162.05282343

> <JCHEM_ACCEPTOR_COUNT>
5

> <JCHEM_AVERAGE_POLARIZABILITY>
14.876466148551891

> <JCHEM_BIOAVAILABILITY>
1

> <JCHEM_DONOR_COUNT>
3

> <JCHEM_FORMAL_CHARGE>
0

> <JCHEM_GHOSE_FILTER>
0

> <JCHEM_IUPAC>
2-hydroxyhexanedioic acid

> <ALOGPS_LOGP>
-0.79

> <JCHEM_LOGP>
-0.3804115579999999

> <ALOGPS_LOGS>
-0.36

> <JCHEM_MDDR_LIKE_RULE>
0

> <JCHEM_NUMBER_OF_RINGS>
0

> <JCHEM_PHYSIOLOGICAL_CHARGE>
-2

> <JCHEM_PKA>
4.304936769181927

> <JCHEM_PKA_STRONGEST_ACIDIC>
3.435316368213932

> <JCHEM_PKA_STRONGEST_BASIC>
-3.7978986375206967

> <JCHEM_POLAR_SURFACE_AREA>
94.82999999999998

> <JCHEM_REFRACTIVITY>
34.2312

> <JCHEM_ROTATABLE_BOND_COUNT>
5

> <JCHEM_RULE_OF_FIVE>
1

> <ALOGPS_SOLUBILITY>
7.03e+01 g/l

> <JCHEM_TRADITIONAL_IUPAC>
Î±-hydroxyadipic acid

> <JCHEM_VEBER_RULE>
0

> <HMDB_ID>
HMDB00321

> <GENERIC_NAME>
2-Hydroxyadipic acid

> <SYNONYMS>
2,3,4-Trideoxyhexarate; 2,3,4-Trideoxyhexaric acid; 2-Hydroxy-adipate; 2-Hydroxy-adipic acid; 2-Hydroxy-hexanedioate; 2-Hydroxy-hexanedioic acid; 2-Hydroxyadipate; 2-Hydroxyadipic acid; 2-Hydroxyhexanedioate; 2-Hydroxyhexanedioic acid; a-Hydroxyadipate; a-Hydroxyadipic acid; alpha-Hydroxyadipate; alpha-Hydroxyadipic acid; DL-2-Hydroxyadipate; DL-2-Hydroxyadipic acid

$$$$
