Ethylmalonic acid.mol
  Mrv0541 02231218382D          

  9  8  0  0  0  0            999 V2000
   -0.4125   -0.7145    0.0000 C   0  0  0  0  0  0  0  0  0  0  0  0
    0.0000    0.0000    0.0000 C   0  0  0  0  0  0  0  0  0  0  0  0
   -0.4125    0.7145    0.0000 C   0  0  0  0  0  0  0  0  0  0  0  0
   -1.2375   -0.7145    0.0000 O   0  0  0  0  0  0  0  0  0  0  0  0
    0.0000   -1.4289    0.0000 O   0  0  0  0  0  0  0  0  0  0  0  0
   -1.2375    0.7145    0.0000 O   0  0  0  0  0  0  0  0  0  0  0  0
    0.0000    1.4289    0.0000 O   0  0  0  0  0  0  0  0  0  0  0  0
    0.8250    0.0000    0.0000 C   0  0  0  0  0  0  0  0  0  0  0  0
    1.2375    0.7145    0.0000 C   0  0  0  0  0  0  0  0  0  0  0  0
  1  2  1  0  0  0  0
  2  3  1  0  0  0  0
  1  4  2  0  0  0  0
  1  5  1  0  0  0  0
  3  6  2  0  0  0  0
  3  7  1  0  0  0  0
  8  9  1  0  0  0  0
  2  8  1  0  0  0  0
M  END
> <DATABASE_ID>
HMDB00622

> <DATABASE_NAME>
hmdb

> <SMILES>
CCC(C(O)=O)C(O)=O

> <INCHI_IDENTIFIER>
InChI=1S/C5H8O4/c1-2-3(4(6)7)5(8)9/h3H,2H2,1H3,(H,6,7)(H,8,9)

> <INCHI_KEY>
UKFXDFUAPNAMPJ-UHFFFAOYSA-N

> <FORMULA>
C5H8O4

> <MOLECULAR_WEIGHT>
132.1146

> <EXACT_MASS>
132.042258744

> <JCHEM_ACCEPTOR_COUNT>
4

> <JCHEM_AVERAGE_POLARIZABILITY>
11.975395201369494

> <JCHEM_BIOAVAILABILITY>
1

> <JCHEM_DONOR_COUNT>
2

> <JCHEM_FORMAL_CHARGE>
0

> <JCHEM_GHOSE_FILTER>
0

> <JCHEM_IUPAC>
2-ethylpropanedioic acid

> <ALOGPS_LOGP>
0.43

> <JCHEM_LOGP>
0.6564376749999998

> <ALOGPS_LOGS>
-0.15

> <JCHEM_MDDR_LIKE_RULE>
0

> <JCHEM_NUMBER_OF_RINGS>
0

> <JCHEM_PHYSIOLOGICAL_CHARGE>
-2

> <JCHEM_PKA>
6.580590600104313

> <JCHEM_PKA_STRONGEST_ACIDIC>
2.495963643151088

> <JCHEM_POLAR_SURFACE_AREA>
74.6

> <JCHEM_REFRACTIVITY>
28.1633

> <JCHEM_ROTATABLE_BOND_COUNT>
3

> <JCHEM_RULE_OF_FIVE>
1

> <ALOGPS_SOLUBILITY>
9.41e+01 g/l

> <JCHEM_TRADITIONAL_IUPAC>
ethylmalonic acid

> <JCHEM_VEBER_RULE>
0

> <HMDB_ID>
HMDB00622

> <GENERIC_NAME>
Ethylmalonic acid

> <SYNONYMS>
1,1-Propanedicarboxylate; 1,1-Propanedicarboxylic acid; a-Carboxybutyrate; a-Carboxybutyric acid; alpha-Carboxybutyrate; alpha-Carboxybutyric acid; Ethyl-Malonic acid; Ethylmalonate; Ethylmalonic acid

$$$$
