Untitled Document-6
  Mrv0541 02231219362D          

 32 35  0  0  0  0            999 V2000
   -3.3884   -1.7737    0.0000 C   0  0  0  0  0  0  0  0  0  0  0  0
   -3.3884   -2.5987    0.0000 C   0  0  1  0  0  0  0  0  0  0  0  0
   -2.6739   -3.0112    0.0000 C   0  0  0  0  0  0  0  0  0  0  0  0
   -1.9594   -2.5987    0.0000 C   0  0  0  0  0  0  0  0  0  0  0  0
   -1.9594   -1.7737    0.0000 C   0  0  2  0  0  0  0  0  0  0  0  0
   -2.6739   -1.3612    0.0000 C   0  0  0  0  0  0  0  0  0  0  0  0
   -1.2450   -3.0112    0.0000 C   0  0  0  0  0  0  0  0  0  0  0  0
   -0.5305   -2.5987    0.0000 C   0  0  0  0  0  0  0  0  0  0  0  0
   -0.5305   -1.7737    0.0000 C   0  0  2  0  0  0  0  0  0  0  0  0
   -1.2450   -1.3612    0.0000 C   0  0  2  0  0  0  0  0  0  0  0  0
    0.1840   -1.3612    0.0000 C   0  0  1  0  0  0  0  0  0  0  0  0
    0.1840   -0.5362    0.0000 C   0  0  2  0  0  0  0  0  0  0  0  0
   -0.5305   -0.1237    0.0000 C   0  0  0  0  0  0  0  0  0  0  0  0
   -1.2450   -0.5362    0.0000 C   0  0  0  0  0  0  0  0  0  0  0  0
    0.9686   -1.6162    0.0000 C   0  0  0  0  0  0  0  0  0  0  0  0
    1.4535   -0.9487    0.0000 C   0  0  0  0  0  0  0  0  0  0  0  0
    0.9686   -0.2813    0.0000 C   0  0  2  0  0  0  0  0  0  0  0  0
   -1.9594   -0.9487    0.0000 C   0  0  0  0  0  0  0  0  0  0  0  0
   -0.5305   -0.9487    0.0000 H   0  0  0  0  0  0  0  0  0  0  0  0
    0.2702    0.2842    0.0000 C   0  0  0  0  0  0  0  0  0  0  0  0
    1.2235    0.5033    0.0000 C   0  0  2  0  0  0  0  0  0  0  0  0
    0.6402    1.0867    0.0000 C   0  0  0  0  0  0  0  0  0  0  0  0
   -4.1028   -3.0112    0.0000 O   0  0  0  0  0  0  0  0  0  0  0  0
    0.1840   -2.1862    0.0000 H   0  0  0  0  0  0  0  0  0  0  0  0
   -1.2450   -2.1862    0.0000 H   0  0  0  0  0  0  0  0  0  0  0  0
    2.0305    0.6748    0.0000 C   0  0  0  0  0  0  0  0  0  0  0  0
    2.2855    1.4595    0.0000 C   0  0  0  0  0  0  0  0  0  0  0  0
    3.0924    1.6310    0.0000 C   0  0  1  0  0  0  0  0  0  0  0  0
    3.3060    2.4279    0.0000 C   0  0  0  0  0  0  0  0  0  0  0  0
    4.1028    2.6414    0.0000 C   0  0  0  0  0  0  0  0  0  0  0  0
    2.7226    3.0112    0.0000 C   0  0  0  0  0  0  0  0  0  0  0  0
    3.6758    1.0476    0.0000 C   0  0  0  0  0  0  0  0  0  0  0  0
  1  2  1  0  0  0  0
  2  3  1  0  0  0  0
  3  4  1  0  0  0  0
  4  5  1  0  0  0  0
  5  6  1  0  0  0  0
  6  1  1  0  0  0  0
  4  7  2  0  0  0  0
  7  8  1  0  0  0  0
  8  9  1  0  0  0  0
  9 10  1  0  0  0  0
 10  5  1  0  0  0  0
  9 11  1  0  0  0  0
 11 12  1  0  0  0  0
 12 13  1  0  0  0  0
 13 14  1  0  0  0  0
 14 10  1  0  0  0  0
 11 15  1  0  0  0  0
 15 16  1  0  0  0  0
 16 17  1  0  0  0  0
 17 12  1  0  0  0  0
  5 18  1  1  0  0  0
  9 19  1  1  0  0  0
 12 20  1  1  0  0  0
 17 21  1  1  0  0  0
 21 22  1  6  0  0  0
  2 23  1  1  0  0  0
 11 24  1  6  0  0  0
 10 25  1  6  0  0  0
 21 26  1  0  0  0  0
 26 27  1  0  0  0  0
 27 28  1  0  0  0  0
 28 29  1  0  0  0  0
 29 30  1  0  0  0  0
 29 31  1  0  0  0  0
 28 32  1  1  0  0  0
M  END
> <DATABASE_ID>
HMDB02869

> <DATABASE_NAME>
hmdb

> <SMILES>
[H][C@@]12CC[C@H]([C@H](C)CC[C@H](C)C(C)C)[C@@]1(C)CC[C@@]1([H])[C@@]2([H])CC=C2C[C@@H](O)CC[C@]12C

> <INCHI_IDENTIFIER>
InChI=1S/C28H48O/c1-18(2)19(3)7-8-20(4)24-11-12-25-23-10-9-21-17-22(29)13-15-27(21,5)26(23)14-16-28(24,25)6/h9,18-20,22-26,29H,7-8,10-17H2,1-6H3/t19-,20+,22-,23-,24+,25-,26-,27-,28+/m0/s1

> <INCHI_KEY>
SGNBVLSWZMBQTH-ZRUUVFCLSA-N

> <FORMULA>
C28H48O

> <MOLECULAR_WEIGHT>
400.6801

> <EXACT_MASS>
400.370516158

> <JCHEM_ACCEPTOR_COUNT>
1

> <JCHEM_AVERAGE_POLARIZABILITY>
52.44931782525835

> <JCHEM_BIOAVAILABILITY>
1

> <JCHEM_DONOR_COUNT>
1

> <JCHEM_FORMAL_CHARGE>
0

> <JCHEM_GHOSE_FILTER>
0

> <JCHEM_IUPAC>
(1S,2R,5S,10S,11S,14R,15R)-14-[(2R,5S)-5,6-dimethylheptan-2-yl]-2,15-dimethyltetracyclo[8.7.0.0²,⁷.0¹¹,¹⁵]heptadec-7-en-5-ol

> <ALOGPS_LOGP>
6.81

> <JCHEM_LOGP>
7.399908127000002

> <ALOGPS_LOGS>
-7.26

> <JCHEM_MDDR_LIKE_RULE>
0

> <JCHEM_NUMBER_OF_RINGS>
4

> <JCHEM_PHYSIOLOGICAL_CHARGE>
0

> <JCHEM_PKA_STRONGEST_ACIDIC>
18.20428950550382

> <JCHEM_PKA_STRONGEST_BASIC>
-1.3972437702926293

> <JCHEM_POLAR_SURFACE_AREA>
20.23

> <JCHEM_REFRACTIVITY>
125.16509999999997

> <JCHEM_ROTATABLE_BOND_COUNT>
5

> <JCHEM_RULE_OF_FIVE>
0

> <ALOGPS_SOLUBILITY>
2.19e-05 g/l

> <JCHEM_TRADITIONAL_IUPAC>
22,23-dihydrobrassicasterol

> <JCHEM_VEBER_RULE>
1

> <HMDB_ID>
HMDB02869

> <GENERIC_NAME>
Campesterol

> <SYNONYMS>
(24R)-5-Ergosten-3-beta-ol; (24R)-5-Ergosten-3b-ol; (24R)-Ergost-5-en-3-beta-ol; (24R)-Ergost-5-en-3b-ol; (24R)-Methylcholest-5-en-3b-ol; (24S)-beta-Methyl cholesterol; (3-beta)-Ergost-5-en-3-ol; (3-beta-24R)-Ergost-5-en-3-ol; (3b,24R)-Ergost-5-en-3-ol; 24-alpha-Methylcholesterol; 24-Methyl-5-Cholestene-3-ol; 24-Methylcholest-5-en-3beta-ol; 24a-Methyl-5-cholesten-3b-ol; 24a-Methylcholesterol; Campesterin; Campestrol; Ergost-5-en-3-beta-ol; Ergost-5-en-3-ol

$$$$
