396
  Mrv0541 02231214392D          

 26 29  0  0  1  0            999 V2000
    6.5848    2.1027    0.0000 O   0  0  0  0  0  0  0  0  0  0  0  0
    1.6499   -2.0649    0.0000 O   0  0  0  0  0  0  0  0  0  0  0  0
    6.0989   -0.3718    0.0000 C   0  0  2  0  0  0  0  0  0  0  0  0
    6.0989    0.4532    0.0000 C   0  0  1  0  0  0  0  0  0  0  0  0
    5.3846   -0.7843    0.0000 C   0  0  1  0  0  0  0  0  0  0  0  0
    4.6700   -0.3718    0.0000 C   0  0  1  0  0  0  0  0  0  0  0  0
    3.9194   -0.7899    0.0000 C   0  0  2  0  0  0  0  0  0  0  0  0
    6.8795    0.7046    0.0000 C   0  0  2  0  0  0  0  0  0  0  0  0
    5.3846    0.8656    0.0000 C   0  0  0  0  0  0  0  0  0  0  0  0
    4.6700    0.4532    0.0000 C   0  0  0  0  0  0  0  0  0  0  0  0
    6.8795   -0.6232    0.0000 C   0  0  0  0  0  0  0  0  0  0  0  0
    5.3978   -1.6435    0.0000 C   0  0  0  0  0  0  0  0  0  0  0  0
    7.3609    0.0407    0.0000 C   0  0  0  0  0  0  0  0  0  0  0  0
    3.9128   -1.6492    0.0000 C   0  0  0  0  0  0  0  0  0  0  0  0
    6.0989    1.2781    0.0000 C   0  0  0  0  0  0  0  0  0  0  0  0
    4.6569   -2.0789    0.0000 C   0  0  0  0  0  0  0  0  0  0  0  0
    3.1548   -0.3246    0.0000 C   0  0  0  0  0  0  0  0  0  0  0  0
    3.9257    0.0350    0.0000 C   0  0  0  0  0  0  0  0  0  0  0  0
    7.1359    1.4887    0.0000 C   0  0  0  0  0  0  0  0  0  0  0  0
    2.3728   -0.7602    0.0000 C   0  0  0  0  0  0  0  0  0  0  0  0
    3.1411   -2.1027    0.0000 C   0  0  0  0  0  0  0  0  0  0  0  0
    2.3659   -1.6552    0.0000 C   0  0  0  0  0  0  0  0  0  0  0  0
    7.9430    1.6588    0.0000 C   0  0  0  0  0  0  0  0  0  0  0  0
    6.1687   -1.0280    0.0000 H   0  0  0  0  0  0  0  0  0  0  0  0
    5.9585   -1.1098    0.0000 H   0  0  0  0  0  0  0  0  0  0  0  0
    5.2417   -0.0418    0.0000 H   0  0  0  0  0  0  0  0  0  0  0  0
  1 19  2  0  0  0  0
  2 22  2  0  0  0  0
  3  4  1  0  0  0  0
  3  5  1  0  0  0  0
  3 11  1  0  0  0  0
  3 24  1  6  0  0  0
  4  8  1  0  0  0  0
  4  9  1  0  0  0  0
  4 15  1  1  0  0  0
  5  6  1  0  0  0  0
  5 12  1  0  0  0  0
  5 25  1  1  0  0  0
  6  7  1  0  0  0  0
  6 10  1  0  0  0  0
  6 26  1  6  0  0  0
  7 14  1  0  0  0  0
  7 17  1  0  0  0  0
  7 18  1  1  0  0  0
  8 13  1  0  0  0  0
  8 19  1  1  0  0  0
  9 10  1  0  0  0  0
 11 13  1  0  0  0  0
 12 16  1  0  0  0  0
 14 16  1  0  0  0  0
 14 21  2  0  0  0  0
 17 20  1  0  0  0  0
 19 23  1  0  0  0  0
 20 22  1  0  0  0  0
 21 22  1  0  0  0  0
M  END
> <DATABASE_ID>
HMDB01830

> <DATABASE_NAME>
hmdb

> <SMILES>
[H][C@@]12CC[C@H](C(C)=O)[C@@]1(C)CC[C@@]1([H])[C@@]2([H])CCC2=CC(=O)CC[C@]12C

> <INCHI_IDENTIFIER>
InChI=1S/C21H30O2/c1-13(22)17-6-7-18-16-5-4-14-12-15(23)8-10-20(14,2)19(16)9-11-21(17,18)3/h12,16-19H,4-11H2,1-3H3/t16-,17+,18-,19-,20-,21+/m0/s1

> <INCHI_KEY>
RJKFOVLPORLFTN-LEKSSAKUSA-N

> <FORMULA>
C21H30O2

> <MOLECULAR_WEIGHT>
314.4617

> <EXACT_MASS>
314.224580204

> <JCHEM_ACCEPTOR_COUNT>
2

> <JCHEM_AVERAGE_POLARIZABILITY>
37.14837208693534

> <JCHEM_BIOAVAILABILITY>
1

> <JCHEM_DONOR_COUNT>
0

> <JCHEM_FORMAL_CHARGE>
0

> <JCHEM_GHOSE_FILTER>
1

> <JCHEM_IUPAC>
(1S,2R,10S,11S,14S,15S)-14-acetyl-2,15-dimethyltetracyclo[8.7.0.0²,⁷.0¹¹,¹⁵]heptadec-6-en-5-one

> <ALOGPS_LOGP>
3.58

> <JCHEM_LOGP>
4.148604400666667

> <ALOGPS_LOGS>
-4.76

> <JCHEM_MDDR_LIKE_RULE>
0

> <JCHEM_NUMBER_OF_RINGS>
4

> <JCHEM_PHYSIOLOGICAL_CHARGE>
0

> <JCHEM_PKA>
19.56485432524616

> <JCHEM_PKA_STRONGEST_ACIDIC>
18.916312523139567

> <JCHEM_PKA_STRONGEST_BASIC>
-4.816188745344462

> <JCHEM_POLAR_SURFACE_AREA>
34.14

> <JCHEM_REFRACTIVITY>
92.7053

> <JCHEM_ROTATABLE_BOND_COUNT>
1

> <JCHEM_RULE_OF_FIVE>
1

> <ALOGPS_SOLUBILITY>
5.46e-03 g/l

> <JCHEM_TRADITIONAL_IUPAC>
progesterone

> <JCHEM_VEBER_RULE>
1

> <HMDB_ID>
HMDB01830

> <GENERIC_NAME>
Progesterone

> <SYNONYMS>
17a-Progesterone; 3,20-Pregnene-4; 4-Pregnen-3,20-dione; 4-Pregnene-3,20-dione; Agolutin; beta-Progesterone; Bio-luton; CIDR; Colprosterone; Corlutin; Corlutina; Corluvite; Corporin; Corpus luteum hormone; Crinone; Crinone progesterone gel; Curretab; Cyclogest; Cyclogesterin; D4-Pregnene-3,20-dione; Delalutin; delta(Sup 4)-Pregnene-3,20-dione; Duraprogen; Estima; Flavolutan; Fologenon; Gesterol; Gesterol 100; Gesterol 50; Gestiron; Gestone; Gestormone; Gestron; Glanducorpin; Gynlutin; Gynoluton; Gynolutone; Hormoflaveine; Hormoluton; Hydroxyprogesterone Caproate; Hydroxyprogesterone Caproic acid; Lingusorbs; Lipo-Lutin; Lucorteum; Lucorteum sol; Lugesteron; Luteal hormone; Luteocrin normale; Luteodyn; Luteogan; Luteohormone; Luteol; Luteopur; Luteosan; Luteostab; Luteovis; Luteum; Lutex; Lutidon; Lutociclina; Lutocuclin M; Lutocyclin; Lutocyclin m; Lutocylin; Lutocylol; Lutoform; Lutogyl; Lutren; Lutromone; Membrettes; Methylpregnone; MPA; Nalutron; Percutacrine; Percutacrine Luteinique; Piaponon; Pranone; Pregn-4-en-3,20-dione; Pregn-4-ene-3,20-dione; Pregnene-3,20-dione; Pregnenedione; Primolut; Prochieve; Progeffik; Progekan; Progestan; Progestasert; Progesterol; Progesterone; Progesteronum; Progestin; Progestogel; Progestol; Progeston; Progestone; Progestosol; Progestron; Progestronol; Projestaject; Prolets; Prolidon; Prolutin; Proluton; Prolutone; Prometrium; Prontogest; Protormone; Syngesterone; Syngestrets; Synovex S; Syntolutan; Utrogest; Utrogestan; Vitarrine

$$$$
