Untitled Document-6
  Mrv0541 02231218412D          

 17 16  0  0  0  0            999 V2000
   -1.7862    0.2062    0.0000 N   0  3  0  0  0  0  0  0  0  0  0  0
   -1.0717    0.6188    0.0000 C   0  0  0  0  0  0  0  0  0  0  0  0
   -0.3572    0.2062    0.0000 C   0  0  0  0  0  0  0  0  0  0  0  0
    0.3572    0.6188    0.0000 C   0  0  0  0  0  0  0  0  0  0  0  0
    0.3572    1.4438    0.0000 C   0  0  0  0  0  0  0  0  0  0  0  0
   -0.3572    1.8563    0.0000 O   0  5  0  0  0  0  0  0  0  0  0  0
    1.0717    1.8563    0.0000 O   0  0  0  0  0  0  0  0  0  0  0  0
   -2.1987    0.9207    0.0000 C   0  0  0  0  0  0  0  0  0  0  0  0
   -1.3737   -0.5082    0.0000 C   0  0  0  0  0  0  0  0  0  0  0  0
   -2.5006   -0.2062    0.0000 C   0  0  0  0  0  0  0  0  0  0  0  0
   -0.3572   -0.6188    0.0000 O   0  0  0  0  0  0  0  0  0  0  0  0
    0.3572   -1.0313    0.0000 C   0  0  0  0  0  0  0  0  0  0  0  0
    1.0717   -0.6188    0.0000 C   0  0  0  0  0  0  0  0  0  0  0  0
    1.7862   -1.0313    0.0000 C   0  0  0  0  0  0  0  0  0  0  0  0
    2.5006   -0.6188    0.0000 C   0  0  0  0  0  0  0  0  0  0  0  0
    1.7862   -1.8563    0.0000 C   0  0  0  0  0  0  0  0  0  0  0  0
    0.3572   -1.8563    0.0000 O   0  0  0  0  0  0  0  0  0  0  0  0
  1  2  1  0  0  0  0
  2  3  1  0  0  0  0
  3  4  1  0  0  0  0
  4  5  1  0  0  0  0
  5  6  1  0  0  0  0
  5  7  2  0  0  0  0
  1  8  1  0  0  0  0
  1  9  1  0  0  0  0
  1 10  1  0  0  0  0
  3 11  1  0  0  0  0
 11 12  1  0  0  0  0
 12 13  1  0  0  0  0
 13 14  1  0  0  0  0
 14 15  1  0  0  0  0
 14 16  1  0  0  0  0
 12 17  2  0  0  0  0
M  CHG  2   1   1   6  -1
M  END
> <DATABASE_ID>
HMDB00688

> <DATABASE_NAME>
hmdb

> <SMILES>
CC(C)CC(=O)OC(CC([O-])=O)C[N+](C)(C)C

> <INCHI_IDENTIFIER>
InChI=1S/C12H23NO4/c1-9(2)6-12(16)17-10(7-11(14)15)8-13(3,4)5/h9-10H,6-8H2,1-5H3

> <INCHI_KEY>
IGQBPDJNUXPEMT-UHFFFAOYSA-N

> <FORMULA>
C12H23NO4

> <MOLECULAR_WEIGHT>
245.3153

> <EXACT_MASS>
245.162708229

> <JCHEM_ACCEPTOR_COUNT>
3

> <JCHEM_AVERAGE_POLARIZABILITY>
26.687672380210703

> <JCHEM_BIOAVAILABILITY>
1

> <JCHEM_DONOR_COUNT>
0

> <JCHEM_FORMAL_CHARGE>
0

> <JCHEM_GHOSE_FILTER>
0

> <JCHEM_IUPAC>
3-[(3-methylbutanoyl)oxy]-4-(trimethylazaniumyl)butanoate

> <ALOGPS_LOGP>
-1.95

> <JCHEM_LOGP>
-3.0142570294717457

> <ALOGPS_LOGS>
-4.08

> <JCHEM_MDDR_LIKE_RULE>
0

> <JCHEM_NUMBER_OF_RINGS>
0

> <JCHEM_PHYSIOLOGICAL_CHARGE>
0

> <JCHEM_PKA_STRONGEST_ACIDIC>
4.342854326023389

> <JCHEM_PKA_STRONGEST_BASIC>
-7.060037223296033

> <JCHEM_POLAR_SURFACE_AREA>
66.43

> <JCHEM_REFRACTIVITY>
86.41329999999999

> <JCHEM_ROTATABLE_BOND_COUNT>
8

> <JCHEM_RULE_OF_FIVE>
1

> <ALOGPS_SOLUBILITY>
2.50e-02 g/l

> <JCHEM_TRADITIONAL_IUPAC>
isovalerylcarnitine

> <JCHEM_VEBER_RULE>
0

> <HMDB_ID>
HMDB00688

> <GENERIC_NAME>
Isovalerylcarnitine

> <SYNONYMS>
Isovaleryl L-carnitine; Isovalerylcarnitine

$$$$
