
  Mrv0541 02231219412D          

 13 12  0  0  1  0            999 V2000
   24.6507  -16.5953    0.0000 O   0  0  0  0  0  0  0  0  0  0  0  0
   23.9363  -18.6577    0.0000 O   0  0  0  0  0  0  0  0  0  0  0  0
   25.3652  -18.6577    0.0000 O   0  0  0  0  0  0  0  0  0  0  0  0
   23.2219  -16.5953    0.0000 O   0  0  0  0  0  0  0  0  0  0  0  0
   26.7940  -17.8328    0.0000 O   0  0  0  0  0  0  0  0  0  0  0  0
   21.7930  -17.4202    0.0000 O   0  0  0  0  0  0  0  0  0  0  0  0
   22.5074  -18.6577    0.0000 O   0  0  0  0  0  0  0  0  0  0  0  0
   24.6507  -17.4202    0.0000 C   0  0  2  0  0  0  0  0  0  0  0  0
   23.9363  -17.8328    0.0000 C   0  0  2  0  0  0  0  0  0  0  0  0
   25.3652  -17.8328    0.0000 C   0  0  1  0  0  0  0  0  0  0  0  0
   23.2219  -17.4202    0.0000 C   0  0  2  0  0  0  0  0  0  0  0  0
   26.0795  -17.4202    0.0000 C   0  0  0  0  0  0  0  0  0  0  0  0
   22.5074  -17.8328    0.0000 C   0  0  0  0  0  0  0  0  0  0  0  0
  8  1  1  1  0  0  0
  9  2  1  1  0  0  0
 10  3  1  1  0  0  0
 11  4  1  6  0  0  0
  5 12  1  0  0  0  0
  6 13  1  0  0  0  0
  7 13  2  0  0  0  0
  8  9  1  0  0  0  0
  8 10  1  0  0  0  0
  9 11  1  0  0  0  0
 10 12  1  0  0  0  0
 11 13  1  0  0  0  0
M  END
> <DATABASE_ID>
HMDB03290

> <DATABASE_NAME>
hmdb

> <SMILES>
OC[C@@H](O)[C@H](O)[C@@H](O)[C@@H](O)C(O)=O

> <INCHI_IDENTIFIER>
InChI=1S/C6H12O7/c7-1-2(8)3(9)4(10)5(11)6(12)13/h2-5,7-11H,1H2,(H,12,13)/t2-,3+,4-,5-/m1/s1

> <INCHI_KEY>
RGHNJXZEOKUKBD-KKQCNMDGSA-N

> <FORMULA>
C6H12O7

> <MOLECULAR_WEIGHT>
196.1553

> <EXACT_MASS>
196.058302738

> <JCHEM_ACCEPTOR_COUNT>
7

> <JCHEM_AVERAGE_POLARIZABILITY>
17.160552512359512

> <JCHEM_BIOAVAILABILITY>
1

> <JCHEM_DONOR_COUNT>
6

> <JCHEM_FORMAL_CHARGE>
0

> <JCHEM_GHOSE_FILTER>
0

> <JCHEM_IUPAC>
(2R,3R,4S,5R)-2,3,4,5,6-pentahydroxyhexanoic acid

> <ALOGPS_LOGP>
-2.57

> <JCHEM_LOGP>
-3.4097443106666665

> <ALOGPS_LOGS>
-0.09

> <JCHEM_MDDR_LIKE_RULE>
0

> <JCHEM_NUMBER_OF_RINGS>
0

> <JCHEM_PHYSIOLOGICAL_CHARGE>
-1

> <JCHEM_PKA>
12.593710458724512

> <JCHEM_PKA_STRONGEST_ACIDIC>
3.3882055743218547

> <JCHEM_PKA_STRONGEST_BASIC>
-2.974220927705365

> <JCHEM_POLAR_SURFACE_AREA>
138.45000000000002

> <JCHEM_REFRACTIVITY>
38.27100000000001

> <JCHEM_ROTATABLE_BOND_COUNT>
5

> <JCHEM_RULE_OF_FIVE>
0

> <ALOGPS_SOLUBILITY>
1.59e+02 g/l

> <JCHEM_TRADITIONAL_IUPAC>
gulonic acid

> <JCHEM_VEBER_RULE>
0

> <HMDB_ID>
HMDB03290

> <GENERIC_NAME>
Gulonic acid

> <SYNONYMS>
D-Gulonate; D-Gulonic acid; Gulonate; L-Gulonate; L-Gulonic acid

$$$$
