855
  Mrv0541 02231215032D          

  9  8  0  0  0  0            999 V2000
    3.5217   -1.0312    0.0000 O   0  0  0  0  0  0  0  0  0  0  0  0
    6.3793   -0.2063    0.0000 O   0  0  0  0  0  0  0  0  0  0  0  0
    5.6650    1.0312    0.0000 O   0  0  0  0  0  0  0  0  0  0  0  0
    2.0928   -0.2063    0.0000 N   0  0  0  0  0  0  0  0  0  0  0  0
    4.2361    0.2063    0.0000 C   0  0  0  0  0  0  0  0  0  0  0  0
    4.9504   -0.2063    0.0000 C   0  0  0  0  0  0  0  0  0  0  0  0
    3.5217   -0.2063    0.0000 C   0  0  0  0  0  0  0  0  0  0  0  0
    2.8072    0.2063    0.0000 C   0  0  0  0  0  0  0  0  0  0  0  0
    5.6650    0.2063    0.0000 C   0  0  0  0  0  0  0  0  0  0  0  0
  1  7  2  0  0  0  0
  2  9  1  0  0  0  0
  3  9  2  0  0  0  0
  4  8  1  0  0  0  0
  5  6  1  0  0  0  0
  5  7  1  0  0  0  0
  6  9  1  0  0  0  0
  7  8  1  0  0  0  0
M  END
> <DATABASE_ID>
HMDB01149

> <DATABASE_NAME>
hmdb

> <SMILES>
NCC(=O)CCC(O)=O

> <INCHI_IDENTIFIER>
InChI=1S/C5H9NO3/c6-3-4(7)1-2-5(8)9/h1-3,6H2,(H,8,9)

> <INCHI_KEY>
ZGXJTSGNIOSYLO-UHFFFAOYSA-N

> <FORMULA>
C5H9NO3

> <MOLECULAR_WEIGHT>
131.1299

> <EXACT_MASS>
131.058243159

> <JCHEM_ACCEPTOR_COUNT>
4

> <JCHEM_AVERAGE_POLARIZABILITY>
12.548276397155272

> <JCHEM_BIOAVAILABILITY>
1

> <JCHEM_DONOR_COUNT>
2

> <JCHEM_FORMAL_CHARGE>
0

> <JCHEM_GHOSE_FILTER>
0

> <JCHEM_IUPAC>
5-amino-4-oxopentanoic acid

> <ALOGPS_LOGP>
-2.85

> <JCHEM_LOGP>
-3.2526454527445376

> <ALOGPS_LOGS>
0.12

> <JCHEM_MDDR_LIKE_RULE>
0

> <JCHEM_NUMBER_OF_RINGS>
0

> <JCHEM_PHYSIOLOGICAL_CHARGE>
0

> <JCHEM_PKA>
17.164001067559852

> <JCHEM_PKA_STRONGEST_ACIDIC>
4.053151638897345

> <JCHEM_PKA_STRONGEST_BASIC>
7.835220055699867

> <JCHEM_POLAR_SURFACE_AREA>
80.39

> <JCHEM_REFRACTIVITY>
30.447799999999997

> <JCHEM_ROTATABLE_BOND_COUNT>
4

> <JCHEM_RULE_OF_FIVE>
1

> <ALOGPS_SOLUBILITY>
1.73e+02 g/l

> <JCHEM_TRADITIONAL_IUPAC>
aminolevulinic acid

> <JCHEM_VEBER_RULE>
0

> <HMDB_ID>
HMDB01149

> <GENERIC_NAME>
5-Aminolevulinic acid

> <SYNONYMS>
5-Amino-4-oxo-Pentanoate; 5-Amino-4-oxo-Pentanoic acid; 5-Amino-4-oxopentanoate; 5-Amino-4-oxopentanoic acid; 5-Amino-4-oxovalerate; 5-Amino-4-oxovaleric acid; 5-Amino-Levulinate; 5-Amino-Levulinic acid; 5-Aminolaevulinate; 5-Aminolaevulinic acid; 5-Aminolevulinate; Aladerm; Amino-levulinic acid; Aminolevulinate; Aminolevulinic acid; delta-Aminolevulinate; delta-Aminolevulinic acid; Kerastick

$$$$
