m0
  Mrv1572012171518022D          

 45 44  0  0  1  0            999 V2000
   -0.1691    0.3607    0.0000 C   0  0  1  0  0  0  0  0  0  0  0  0
   -0.8792    0.7695    0.0000 C   0  0  0  0  0  0  0  0  0  0  0  0
   -1.5896    0.3607    0.0000 O   0  0  0  0  0  0  0  0  0  0  0  0
    0.2414   -0.3494    0.0000 H   0  0  0  0  0  0  0  0  0  0  0  0
   -0.5796   -0.3494    0.0000 O   0  0  0  0  0  0  0  0  0  0  0  0
    0.5412    0.7708    0.0000 C   0  0  0  0  0  0  0  0  0  0  0  0
    1.2514    0.3607    0.0000 O   0  0  0  0  0  0  0  0  0  0  0  0
    3.0097    0.3436    0.0000 O   0  0  0  0  0  0  0  0  0  0  0  0
    2.2620    0.6480    0.0000 P   0  0  0  0  0  0  0  0  0  0  0  0
    1.9002    0.0209    0.0000 O   0  0  0  0  0  0  0  0  0  0  0  0
    2.2620    1.3958    0.0000 O   0  0  0  0  0  0  0  0  0  0  0  0
   -2.2996    0.7695    0.0000 C   0  0  0  0  0  0  0  0  0  0  0  0
   -2.2996    1.5409    0.0000 O   0  0  0  0  0  0  0  0  0  0  0  0
   -3.0137    0.3564    0.0000 C   0  0  0  0  0  0  0  0  0  0  0  0
   -3.7278    0.7695    0.0000 C   0  0  0  0  0  0  0  0  0  0  0  0
   -4.4419    0.3564    0.0000 C   0  0  0  0  0  0  0  0  0  0  0  0
   -5.1560    0.7695    0.0000 C   0  0  0  0  0  0  0  0  0  0  0  0
   -5.8701    0.3564    0.0000 C   0  0  0  0  0  0  0  0  0  0  0  0
   -6.5843    0.7695    0.0000 C   0  0  0  0  0  0  0  0  0  0  0  0
   -7.2984    0.3564    0.0000 C   0  0  0  0  0  0  0  0  0  0  0  0
   -8.0125    0.7695    0.0000 C   0  0  0  0  0  0  0  0  0  0  0  0
   -8.7266    0.3564    0.0000 C   0  0  0  0  0  0  0  0  0  0  0  0
   -9.4407    0.7695    0.0000 C   0  0  0  0  0  0  0  0  0  0  0  0
  -10.1549    0.3564    0.0000 C   0  0  0  0  0  0  0  0  0  0  0  0
  -10.8690    0.7695    0.0000 C   0  0  0  0  0  0  0  0  0  0  0  0
  -11.5831    0.3564    0.0000 C   0  0  0  0  0  0  0  0  0  0  0  0
  -12.2972    0.7695    0.0000 C   0  0  0  0  0  0  0  0  0  0  0  0
  -13.0113    0.3564    0.0000 C   0  0  0  0  0  0  0  0  0  0  0  0
   -1.3235   -0.7692    0.0000 C   0  0  0  0  0  0  0  0  0  0  0  0
   -1.3235   -1.5406    0.0000 O   0  0  0  0  0  0  0  0  0  0  0  0
   -2.0376   -0.3561    0.0000 C   0  0  0  0  0  0  0  0  0  0  0  0
   -2.7517   -0.7692    0.0000 C   0  0  0  0  0  0  0  0  0  0  0  0
   -3.4659   -0.3561    0.0000 C   0  0  0  0  0  0  0  0  0  0  0  0
   -4.1800   -0.7692    0.0000 C   0  0  0  0  0  0  0  0  0  0  0  0
   -4.8941   -0.3561    0.0000 C   0  0  0  0  0  0  0  0  0  0  0  0
   -5.6082   -0.7692    0.0000 C   0  0  0  0  0  0  0  0  0  0  0  0
   -6.3223   -0.3561    0.0000 C   0  0  0  0  0  0  0  0  0  0  0  0
   -7.0364   -0.7692    0.0000 C   0  0  0  0  0  0  0  0  0  0  0  0
   -7.7505   -0.3561    0.0000 C   0  0  0  0  0  0  0  0  0  0  0  0
   -8.4646   -0.7692    0.0000 C   0  0  0  0  0  0  0  0  0  0  0  0
   -9.1788   -0.3561    0.0000 C   0  0  0  0  0  0  0  0  0  0  0  0
   -9.8929   -0.7692    0.0000 C   0  0  0  0  0  0  0  0  0  0  0  0
  -10.6070   -0.3561    0.0000 C   0  0  0  0  0  0  0  0  0  0  0  0
  -11.3212   -0.7692    0.0000 C   0  0  0  0  0  0  0  0  0  0  0  0
  -12.0353   -0.3561    0.0000 C   0  0  0  0  0  0  0  0  0  0  0  0
  1  2  1  0  0  0  0
  1  5  1  0  0  0  0
  1  4  1  1  0  0  0
  2  3  1  0  0  0  0
  3 12  1  0  0  0  0
  6  1  1  0  0  0  0
  7  6  1  0  0  0  0
  9  8  1  0  0  0  0
  9 10  1  0  0  0  0
  9 11  2  0  0  0  0
  9  7  1  0  0  0  0
 12 13  2  0  0  0  0
 12 14  1  0  0  0  0
 14 15  1  0  0  0  0
 15 16  1  0  0  0  0
 16 17  1  0  0  0  0
 17 18  1  0  0  0  0
 18 19  1  0  0  0  0
 19 20  1  0  0  0  0
 20 21  1  0  0  0  0
 21 22  1  0  0  0  0
 22 23  1  0  0  0  0
 23 24  1  0  0  0  0
 24 25  1  0  0  0  0
 25 26  1  0  0  0  0
 26 27  1  0  0  0  0
 27 28  1  0  0  0  0
 29  5  1  0  0  0  0
 29 30  2  0  0  0  0
 29 31  1  0  0  0  0
 31 32  1  0  0  0  0
 32 33  1  0  0  0  0
 33 34  1  0  0  0  0
 34 35  1  0  0  0  0
 35 36  1  0  0  0  0
 36 37  1  0  0  0  0
 37 38  1  0  0  0  0
 38 39  1  0  0  0  0
 39 40  1  0  0  0  0
 40 41  1  0  0  0  0
 41 42  1  0  0  0  0
 42 43  1  0  0  0  0
 43 44  1  0  0  0  0
 44 45  1  0  0  0  0
M  END
> <DATABASE_ID>
HMDB00674

> <DATABASE_NAME>
hmdb

> <SMILES>
[H][C@@](COC(=O)CCCCCCCCCCCCCCC)(COP(O)(O)=O)OC(=O)CCCCCCCCCCCCCCC

> <INCHI_IDENTIFIER>
InChI=1S/C35H69O8P/c1-3-5-7-9-11-13-15-17-19-21-23-25-27-29-34(36)41-31-33(32-42-44(38,39)40)43-35(37)30-28-26-24-22-20-18-16-14-12-10-8-6-4-2/h33H,3-32H2,1-2H3,(H2,38,39,40)/t33-/m1/s1

> <INCHI_KEY>
PORPENFLTBBHSG-MGBGTMOVSA-N

> <FORMULA>
C35H69O8P

> <MOLECULAR_WEIGHT>
648.903

> <EXACT_MASS>
648.47300618

> <JCHEM_ACCEPTOR_COUNT>
5

> <JCHEM_ATOM_COUNT>
113

> <JCHEM_AVERAGE_POLARIZABILITY>
80.09065936369619

> <JCHEM_BIOAVAILABILITY>
0

> <JCHEM_DONOR_COUNT>
2

> <JCHEM_FORMAL_CHARGE>
0

> <JCHEM_GHOSE_FILTER>
0

> <JCHEM_IUPAC>
[(2R)-2,3-bis(hexadecanoyloxy)propoxy]phosphonic acid

> <ALOGPS_LOGP>
8.66

> <JCHEM_LOGP>
11.879527750666666

> <ALOGPS_LOGS>
-6.74

> <JCHEM_MDDR_LIKE_RULE>
0

> <JCHEM_NUMBER_OF_RINGS>
0

> <JCHEM_PHYSIOLOGICAL_CHARGE>
-2

> <JCHEM_PKA>
6.343234649149876

> <JCHEM_PKA_STRONGEST_ACIDIC>
1.3174060830586427

> <JCHEM_PKA_STRONGEST_BASIC>
-6.744159310865148

> <JCHEM_POLAR_SURFACE_AREA>
119.36000000000003

> <JCHEM_REFRACTIVITY>
178.5718

> <JCHEM_ROTATABLE_BOND_COUNT>
36

> <JCHEM_RULE_OF_FIVE>
0

> <ALOGPS_SOLUBILITY>
1.18e-04 g/l

> <JCHEM_TRADITIONAL_IUPAC>
dipalmitoyl

> <JCHEM_VEBER_RULE>
0

> <HMDB_ID>
HMDB00674

> <GENERIC_NAME>
PA(16:0/16:0)

> <SYNONYMS>
1,2-Di-O-palmitoyl-3-sn-glyceryl-O-phosphorate; 1,2-Di-O-palmitoyl-3-sn-glyceryl-O-phosphoric acid; 1,2-Dihexadecanoyl-rac-phosphatidic acid ; 1,2-Dipalmitoyl-3-sn-phosphatidate; 1,2-Dipalmitoyl-3-sn-phosphatidic acid; 1,2-Dipalmitoyl-sn-glycerol 3-phosphate; 1,2-Dipalmitoyl-sn-glycerol-3-phosphorate; 1,2-Dipalmitoyl-sn-glycerol-3-phosphoric acid; Dipalmitoyl-L-a-phosphatidate; Dipalmitoyl-L-a-phosphatidic acid; Dipalmitoyl-L-alpha-phosphatidate; Dipalmitoyl-L-alpha-phosphatidic acid; Dipalmitoylphosphatidate; Dipalmitoylphosphatidic acid; L-a-Dipalmitoyl-phosphatidate; L-a-Dipalmitoyl-phosphatidic acid; L-a-Dipalmitoylphosphatidate; L-a-Dipalmitoylphosphatidic acid; L-alpha-Dipalmitoyl-phosphatidate; L-alpha-Dipalmitoyl-phosphatidic acid; L-alpha-Dipalmitoylphosphatidate; L-alpha-Dipalmitoylphosphatidic acid; PA(32:0); Phosphatidic acid(16:0/16:0); Phosphatidic acid(32:0)

$$$$
