Nonadecanoic acid.mol
  Mrv0541 02231218442D          

 21 20  0  0  0  0            999 V2000
    5.7158    0.4125    0.0000 C   0  0  0  0  0  0  0  0  0  0  0  0
    5.7158   -0.4125    0.0000 C   0  0  0  0  0  0  0  0  0  0  0  0
    5.0013   -0.8250    0.0000 C   0  0  0  0  0  0  0  0  0  0  0  0
    4.2868   -0.4125    0.0000 C   0  0  0  0  0  0  0  0  0  0  0  0
    3.5724   -0.8250    0.0000 C   0  0  0  0  0  0  0  0  0  0  0  0
    2.8579   -0.4125    0.0000 C   0  0  0  0  0  0  0  0  0  0  0  0
    2.1434   -0.8250    0.0000 C   0  0  0  0  0  0  0  0  0  0  0  0
    1.4289   -0.4125    0.0000 C   0  0  0  0  0  0  0  0  0  0  0  0
    0.7145   -0.8250    0.0000 C   0  0  0  0  0  0  0  0  0  0  0  0
    0.0000   -0.4125    0.0000 C   0  0  0  0  0  0  0  0  0  0  0  0
   -0.7145   -0.8250    0.0000 C   0  0  0  0  0  0  0  0  0  0  0  0
   -1.4289   -0.4125    0.0000 C   0  0  0  0  0  0  0  0  0  0  0  0
   -2.1434   -0.8250    0.0000 C   0  0  0  0  0  0  0  0  0  0  0  0
   -2.8579   -0.4125    0.0000 C   0  0  0  0  0  0  0  0  0  0  0  0
   -3.5724   -0.8250    0.0000 C   0  0  0  0  0  0  0  0  0  0  0  0
   -4.2868   -0.4125    0.0000 C   0  0  0  0  0  0  0  0  0  0  0  0
   -5.0013   -0.8250    0.0000 C   0  0  0  0  0  0  0  0  0  0  0  0
   -5.7158   -0.4125    0.0000 C   0  0  0  0  0  0  0  0  0  0  0  0
   -6.4302   -0.8250    0.0000 C   0  0  0  0  0  0  0  0  0  0  0  0
    5.0013    0.8250    0.0000 O   0  0  0  0  0  0  0  0  0  0  0  0
    6.4302    0.8250    0.0000 O   0  0  0  0  0  0  0  0  0  0  0  0
  1  2  1  0  0  0  0
  2  3  1  0  0  0  0
  3  4  1  0  0  0  0
  4  5  1  0  0  0  0
  5  6  1  0  0  0  0
  6  7  1  0  0  0  0
  7  8  1  0  0  0  0
  8  9  1  0  0  0  0
  9 10  1  0  0  0  0
 10 11  1  0  0  0  0
 11 12  1  0  0  0  0
 12 13  1  0  0  0  0
 13 14  1  0  0  0  0
 14 15  1  0  0  0  0
 15 16  1  0  0  0  0
 16 17  1  0  0  0  0
 17 18  1  0  0  0  0
 18 19  1  0  0  0  0
  1 20  2  0  0  0  0
  1 21  1  0  0  0  0
M  END
> <DATABASE_ID>
HMDB00772

> <DATABASE_NAME>
hmdb

> <SMILES>
CCCCCCCCCCCCCCCCCCC(O)=O

> <INCHI_IDENTIFIER>
InChI=1S/C19H38O2/c1-2-3-4-5-6-7-8-9-10-11-12-13-14-15-16-17-18-19(20)21/h2-18H2,1H3,(H,20,21)

> <INCHI_KEY>
ISYWECDDZWTKFF-UHFFFAOYSA-N

> <FORMULA>
C19H38O2

> <MOLECULAR_WEIGHT>
298.5038

> <EXACT_MASS>
298.28718046

> <JCHEM_ACCEPTOR_COUNT>
2

> <JCHEM_AVERAGE_POLARIZABILITY>
40.77831765714592

> <JCHEM_BIOAVAILABILITY>
0

> <JCHEM_DONOR_COUNT>
1

> <JCHEM_FORMAL_CHARGE>
0

> <JCHEM_GHOSE_FILTER>
0

> <JCHEM_IUPAC>
nonadecanoic acid

> <ALOGPS_LOGP>
8.42

> <JCHEM_LOGP>
7.590288772666668

> <ALOGPS_LOGS>
-6.64

> <JCHEM_MDDR_LIKE_RULE>
0

> <JCHEM_NUMBER_OF_RINGS>
0

> <JCHEM_PHYSIOLOGICAL_CHARGE>
-1

> <JCHEM_PKA_STRONGEST_ACIDIC>
4.952019655228562

> <JCHEM_POLAR_SURFACE_AREA>
37.3

> <JCHEM_REFRACTIVITY>
90.88659999999999

> <JCHEM_ROTATABLE_BOND_COUNT>
17

> <JCHEM_RULE_OF_FIVE>
0

> <ALOGPS_SOLUBILITY>
6.79e-05 g/l

> <JCHEM_TRADITIONAL_IUPAC>
nonadecanoic acid

> <JCHEM_VEBER_RULE>
0

> <HMDB_ID>
HMDB00772

> <GENERIC_NAME>
Nonadecanoic acid

> <SYNONYMS>
N-Nonadecanoate; N-Nonadecanoic acid; N-Nonadecylate; N-Nonadecylic acid; Nonadecanoate; Nonadecanoic acid

$$$$
