
  Mrv0541 02231219212D          

 24 23  0  0  0  0            999 V2000
    5.6675   -1.6100    0.0000 C   0  0  0  0  0  0  0  0  0  0  0  0
    6.3820   -2.0225    0.0000 C   0  0  0  0  0  0  0  0  0  0  0  0
    6.3820   -2.8475    0.0000 C   0  0  0  0  0  0  0  0  0  0  0  0
    7.0965   -3.2600    0.0000 C   0  0  0  0  0  0  0  0  0  0  0  0
    7.0965   -4.0850    0.0000 C   0  0  0  0  0  0  0  0  0  0  0  0
    7.8109   -4.4975    0.0000 C   0  0  0  0  0  0  0  0  0  0  0  0
    7.8109   -5.3225    0.0000 C   0  0  0  0  0  0  0  0  0  0  0  0
    8.5254   -5.7350    0.0000 C   0  0  0  0  0  0  0  0  0  0  0  0
    8.5254   -6.5600    0.0000 C   0  0  0  0  0  0  0  0  0  0  0  0
    9.2399   -6.9725    0.0000 C   0  0  0  0  0  0  0  0  0  0  0  0
    9.9543   -6.5600    0.0000 C   0  0  0  0  0  0  0  0  0  0  0  0
   10.6688   -6.9725    0.0000 C   0  0  0  0  0  0  0  0  0  0  0  0
   11.3833   -6.5600    0.0000 C   0  0  0  0  0  0  0  0  0  0  0  0
   12.0977   -6.9725    0.0000 C   0  0  0  0  0  0  0  0  0  0  0  0
   12.8122   -6.5600    0.0000 C   0  0  0  0  0  0  0  0  0  0  0  0
   13.5267   -6.9725    0.0000 C   0  0  0  0  0  0  0  0  0  0  0  0
   14.2412   -6.5600    0.0000 C   0  0  0  0  0  0  0  0  0  0  0  0
   14.9556   -6.9725    0.0000 C   0  0  0  0  0  0  0  0  0  0  0  0
   15.6701   -6.5600    0.0000 C   0  0  0  0  0  0  0  0  0  0  0  0
   16.3846   -6.9725    0.0000 C   0  0  0  0  0  0  0  0  0  0  0  0
   17.0990   -6.5600    0.0000 C   0  0  0  0  0  0  0  0  0  0  0  0
   17.8135   -6.9725    0.0000 C   0  0  0  0  0  0  0  0  0  0  0  0
   18.5280   -6.5600    0.0000 O   0  0  0  0  0  0  0  0  0  0  0  0
   17.8135   -7.7975    0.0000 O   0  0  0  0  0  0  0  0  0  0  0  0
  1  2  1  0  0  0  0
  2  3  1  0  0  0  0
  3  4  1  0  0  0  0
  4  5  1  0  0  0  0
  5  6  1  0  0  0  0
  6  7  1  0  0  0  0
  7  8  1  0  0  0  0
  8  9  1  0  0  0  0
  9 10  2  0  0  0  0
 10 11  1  0  0  0  0
 11 12  1  0  0  0  0
 12 13  1  0  0  0  0
 13 14  1  0  0  0  0
 14 15  1  0  0  0  0
 15 16  1  0  0  0  0
 16 17  1  0  0  0  0
 17 18  1  0  0  0  0
 18 19  1  0  0  0  0
 19 20  1  0  0  0  0
 20 21  1  0  0  0  0
 21 22  1  0  0  0  0
 22 23  1  0  0  0  0
 22 24  2  0  0  0  0
M  END
> <DATABASE_ID>
HMDB02068

> <DATABASE_NAME>
hmdb

> <SMILES>
CCCCCCCC\C=C/CCCCCCCCCCCC(O)=O

> <INCHI_IDENTIFIER>
InChI=1S/C22H42O2/c1-2-3-4-5-6-7-8-9-10-11-12-13-14-15-16-17-18-19-20-21-22(23)24/h9-10H,2-8,11-21H2,1H3,(H,23,24)/b10-9-

> <INCHI_KEY>
DPUOLQHDNGRHBS-KTKRTIGZSA-N

> <FORMULA>
C22H42O2

> <MOLECULAR_WEIGHT>
338.5677

> <EXACT_MASS>
338.318480588

> <JCHEM_ACCEPTOR_COUNT>
2

> <JCHEM_AVERAGE_POLARIZABILITY>
45.60063768096073

> <JCHEM_BIOAVAILABILITY>
0

> <JCHEM_DONOR_COUNT>
1

> <JCHEM_FORMAL_CHARGE>
0

> <JCHEM_GHOSE_FILTER>
0

> <JCHEM_IUPAC>
(13Z)-docos-13-enoic acid

> <ALOGPS_LOGP>
8.97

> <JCHEM_LOGP>
8.562073111

> <ALOGPS_LOGS>
-7.17

> <JCHEM_MDDR_LIKE_RULE>
0

> <JCHEM_NUMBER_OF_RINGS>
0

> <JCHEM_PHYSIOLOGICAL_CHARGE>
-1

> <JCHEM_PKA_STRONGEST_ACIDIC>
4.952019655228562

> <JCHEM_POLAR_SURFACE_AREA>
37.3

> <JCHEM_REFRACTIVITY>
105.80619999999999

> <JCHEM_ROTATABLE_BOND_COUNT>
19

> <JCHEM_RULE_OF_FIVE>
0

> <ALOGPS_SOLUBILITY>
2.27e-05 g/l

> <JCHEM_TRADITIONAL_IUPAC>
erucic acid

> <JCHEM_VEBER_RULE>
0

> <HMDB_ID>
HMDB02068

> <GENERIC_NAME>
Erucic acid

> <SYNONYMS>
(13Z)-13-Docosenoate; (13Z)-13-Docosenoic acid; (13Z)-Docosenoate; (13Z)-Docosenoic acid; (Z)-13-Docosenoate; (Z)-13-Docosenoic acid; 13-Docosenoate; 13-Docosenoic acid; 13-Docosenoic acid (ACD/Name 4.0); cis-13-Docosenoate; cis-13-Docosenoic acid; cis-Erucic acid; delta 13-cis-Docosenoate; delta 13-cis-Docosenoic acid; delta.13-cis-Docosenoate; delta.13-cis-Docosenoic acid; Prifrac 2990

$$$$
