
  Mrv0541 02231215462D          

  5  4  0  0  0  0            999 V2000
    2.0625   -0.7145    0.0000 C   0  0  0  0  0  0  0  0  0  0  0  0
    1.2375   -0.7145    0.0000 N   0  0  0  0  0  0  0  0  0  0  0  0
    0.8250   -1.4289    0.0000 C   0  0  0  0  0  0  0  0  0  0  0  0
    0.8250    0.0000    0.0000 C   0  0  0  0  0  0  0  0  0  0  0  0
    0.0000    0.0000    0.0000 O   0  0  0  0  0  0  0  0  0  0  0  0
  1  2  1  0  0  0  0
  2  3  1  0  0  0  0
  2  4  1  0  0  0  0
  4  5  2  0  0  0  0
M  END
> <DATABASE_ID>
HMDB01888

> <DATABASE_NAME>
hmdb

> <SMILES>
CN(C)C=O

> <INCHI_IDENTIFIER>
InChI=1S/C3H7NO/c1-4(2)3-5/h3H,1-2H3

> <INCHI_KEY>
ZMXDDKWLCZADIW-UHFFFAOYSA-N

> <FORMULA>
C3H7NO

> <MOLECULAR_WEIGHT>
73.0938

> <EXACT_MASS>
73.052763851

> <JCHEM_ACCEPTOR_COUNT>
1

> <JCHEM_AVERAGE_POLARIZABILITY>
7.685931294003053

> <JCHEM_BIOAVAILABILITY>
1

> <JCHEM_DONOR_COUNT>
0

> <JCHEM_FORMAL_CHARGE>
0

> <JCHEM_GHOSE_FILTER>
0

> <JCHEM_IUPAC>
N,N-dimethylformamide

> <ALOGPS_LOGP>
-0.77

> <JCHEM_LOGP>
-0.6316349046666669

> <ALOGPS_LOGS>
1.00

> <JCHEM_MDDR_LIKE_RULE>
0

> <JCHEM_NUMBER_OF_RINGS>
0

> <JCHEM_PHYSIOLOGICAL_CHARGE>
0

> <JCHEM_PKA_STRONGEST_BASIC>
-0.6464178606950223

> <JCHEM_POLAR_SURFACE_AREA>
20.310000000000002

> <JCHEM_REFRACTIVITY>
19.768800000000002

> <JCHEM_ROTATABLE_BOND_COUNT>
0

> <JCHEM_RULE_OF_FIVE>
1

> <ALOGPS_SOLUBILITY>
7.25e+02 g/l

> <JCHEM_TRADITIONAL_IUPAC>
dimethylformamide

> <JCHEM_VEBER_RULE>
1

> <HMDB_ID>
HMDB01888

> <GENERIC_NAME>
N,N-Dimethylformamide

> <SYNONYMS>
Dimethyl formamide; Dimethyl-Formamide; Dimethylamid kyseliny mravenci; Dimethylforamide; Dimethylformamid; Dimethylformamide; Dimetilformamide; Dimetylformamidu; Dwumetyloformamid; Formyldimethylamine; N,N- Dimethyl formamide; N,N- Dimethylformamide; N,N-Dimethyl-Formamide; N-Formyldimethylamine

$$$$
