
  Mrv0541 02231218402D          

 11 11  0  0  0  0            999 V2000
   -0.1920   -0.3428    0.0000 C   0  0  0  0  0  0  0  0  0  0  0  0
   -0.1851    0.4834    0.0000 C   0  0  0  0  0  0  0  0  0  0  0  0
   -0.9118   -0.7473    0.0000 C   0  0  0  0  0  0  0  0  0  0  0  0
    0.5142   -0.7542    0.0000 C   0  0  0  0  0  0  0  0  0  0  0  0
   -0.8981    0.9015    0.0000 C   0  0  0  0  0  0  0  0  0  0  0  0
    0.5211    0.9015    0.0000 O   0  0  0  0  0  0  0  0  0  0  0  0
   -1.6181   -0.3326    0.0000 C   0  0  0  0  0  0  0  0  0  0  0  0
    1.2273   -0.3394    0.0000 C   0  0  0  0  0  0  0  0  0  0  0  0
   -1.6112    0.4937    0.0000 C   0  0  0  0  0  0  0  0  0  0  0  0
    1.9334   -0.7542    0.0000 O   0  0  0  0  0  0  0  0  0  0  0  0
    1.2204    0.4869    0.0000 O   0  0  0  0  0  0  0  0  0  0  0  0
  1  2  1  0  0  0  0
  1  3  2  0  0  0  0
  1  4  1  0  0  0  0
  2  5  2  0  0  0  0
  2  6  1  0  0  0  0
  3  7  1  0  0  0  0
  4  8  1  0  0  0  0
  5  9  1  0  0  0  0
  8 10  1  0  0  0  0
  8 11  2  0  0  0  0
  7  9  2  0  0  0  0
M  END
> <DATABASE_ID>
HMDB00669

> <DATABASE_NAME>
hmdb

> <SMILES>
OC(=O)CC1=CC=CC=C1O

> <INCHI_IDENTIFIER>
InChI=1S/C8H8O3/c9-7-4-2-1-3-6(7)5-8(10)11/h1-4,9H,5H2,(H,10,11)

> <INCHI_KEY>
CCVYRRGZDBSHFU-UHFFFAOYSA-N

> <FORMULA>
C8H8O3

> <MOLECULAR_WEIGHT>
152.1473

> <EXACT_MASS>
152.047344122

> <JCHEM_ACCEPTOR_COUNT>
3

> <JCHEM_AVERAGE_POLARIZABILITY>
14.606132955958234

> <JCHEM_BIOAVAILABILITY>
1

> <JCHEM_DONOR_COUNT>
2

> <JCHEM_FORMAL_CHARGE>
0

> <JCHEM_GHOSE_FILTER>
0

> <JCHEM_IUPAC>
2-(2-hydroxyphenyl)acetic acid

> <ALOGPS_LOGP>
0.99

> <JCHEM_LOGP>
1.3074287836666667

> <ALOGPS_LOGS>
-1.38

> <JCHEM_MDDR_LIKE_RULE>
0

> <JCHEM_NUMBER_OF_RINGS>
1

> <JCHEM_PHYSIOLOGICAL_CHARGE>
-1

> <JCHEM_PKA>
9.3788850306351

> <JCHEM_PKA_STRONGEST_ACIDIC>
4.0007146877626125

> <JCHEM_PKA_STRONGEST_BASIC>
-6.017511950103068

> <JCHEM_POLAR_SURFACE_AREA>
57.53

> <JCHEM_REFRACTIVITY>
39.3465

> <JCHEM_ROTATABLE_BOND_COUNT>
2

> <JCHEM_RULE_OF_FIVE>
1

> <ALOGPS_SOLUBILITY>
6.38e+00 g/l

> <JCHEM_TRADITIONAL_IUPAC>
o-hydroxyphenylacetic acid

> <JCHEM_VEBER_RULE>
0

> <HMDB_ID>
HMDB00669

> <GENERIC_NAME>
Ortho-Hydroxyphenylacetic acid

> <SYNONYMS>
(2-Hydroxyphenyl)acetate; (2-Hydroxyphenyl)acetic acid; (O-hydroxyphenyl)-Acetate; (O-hydroxyphenyl)-Acetic acid; (O-Hydroxyphenyl)acetate; (O-Hydroxyphenyl)acetic acid; 2-HPAA; 2-Hydroxybenzeneacetate; 2-Hydroxybenzeneacetic acid; 2-Hydroxyphenylacetic acid; Hydroxyphenylacetate; Hydroxyphenylacetic acid; O-Hydroxyphenylacetic acid

$$$$
