Lithocholic acid.mol
  Mrv0541 02231218432D          

 30 33  0  0  0  0            999 V2000
   -2.4296   -1.1177    0.0000 C   0  0  0  0  0  0  0  0  0  0  0  0
   -3.1441   -1.5302    0.0000 C   0  0  0  0  0  0  0  0  0  0  0  0
   -3.1441   -2.3552    0.0000 C   0  0  1  0  0  0  0  0  0  0  0  0
   -3.8585   -2.7677    0.0000 O   0  0  0  0  0  0  0  0  0  0  0  0
   -2.4296   -2.7677    0.0000 C   0  0  0  0  0  0  0  0  0  0  0  0
   -1.7151   -2.3552    0.0000 C   0  0  0  0  0  0  0  0  0  0  0  0
   -1.0006   -2.7677    0.0000 C   0  0  0  0  0  0  0  0  0  0  0  0
   -0.2862   -2.3552    0.0000 C   0  0  0  0  0  0  0  0  0  0  0  0
   -0.2862   -1.5302    0.0000 C   0  0  1  0  0  0  0  0  0  0  0  0
    0.4283   -1.1177    0.0000 C   0  0  2  0  0  0  0  0  0  0  0  0
    1.2129   -1.3726    0.0000 C   0  0  0  0  0  0  0  0  0  0  0  0
    1.6978   -0.7052    0.0000 C   0  0  0  0  0  0  0  0  0  0  0  0
    1.2129   -0.0378    0.0000 C   0  0  2  0  0  0  0  0  0  0  0  0
    1.4679    0.7469    0.0000 C   0  0  1  0  0  0  0  0  0  0  0  0
    2.2647    0.9604    0.0000 C   0  0  0  0  0  0  0  0  0  0  0  0
    2.4783    1.7573    0.0000 C   0  0  0  0  0  0  0  0  0  0  0  0
    3.2752    1.9708    0.0000 C   0  0  0  0  0  0  0  0  0  0  0  0
    0.8845    1.3302    0.0000 C   0  0  0  0  0  0  0  0  0  0  0  0
    0.4283   -0.2927    0.0000 C   0  0  2  0  0  0  0  0  0  0  0  0
    0.4283    0.5323    0.0000 C   0  0  0  0  0  0  0  0  0  0  0  0
   -0.2862    0.1198    0.0000 C   0  0  0  0  0  0  0  0  0  0  0  0
   -1.0006   -0.2927    0.0000 C   0  0  0  0  0  0  0  0  0  0  0  0
   -1.0006   -1.1177    0.0000 C   0  0  2  0  0  0  0  0  0  0  0  0
   -1.7151   -1.5302    0.0000 C   0  0  1  0  0  0  0  0  0  0  0  0
   -1.7151   -0.7052    0.0000 C   0  0  0  0  0  0  0  0  0  0  0  0
    3.8585    1.3874    0.0000 O   0  0  0  0  0  0  0  0  0  0  0  0
    3.4887    2.7677    0.0000 O   0  0  0  0  0  0  0  0  0  0  0  0
   -1.0006   -1.9427    0.0000 H   0  0  0  0  0  0  0  0  0  0  0  0
   -0.2862   -0.7052    0.0000 H   0  0  0  0  0  0  0  0  0  0  0  0
    0.4283   -1.9427    0.0000 H   0  0  0  0  0  0  0  0  0  0  0  0
  1  2  1  0  0  0  0
  2  3  1  0  0  0  0
  3  4  1  6  0  0  0
  3  5  1  0  0  0  0
  5  6  1  0  0  0  0
  6  7  1  0  0  0  0
  7  8  1  0  0  0  0
  8  9  1  0  0  0  0
  9 10  1  0  0  0  0
 10 11  1  0  0  0  0
 11 12  1  0  0  0  0
 13 12  1  1  0  0  0
 13 14  1  0  0  0  0
 14 15  1  0  0  0  0
 15 16  1  0  0  0  0
 16 17  1  0  0  0  0
 14 18  1  6  0  0  0
 13 19  1  0  0  0  0
 10 19  1  0  0  0  0
 19 20  1  1  0  0  0
 19 21  1  0  0  0  0
 21 22  1  0  0  0  0
 22 23  1  0  0  0  0
  9 23  1  0  0  0  0
 23 24  1  0  0  0  0
  1 24  1  0  0  0  0
  6 24  1  0  0  0  0
 24 25  1  1  0  0  0
 17 26  2  0  0  0  0
 17 27  1  0  0  0  0
 23 28  1  6  0  0  0
  9 29  1  1  0  0  0
 10 30  1  6  0  0  0
M  END
> <DATABASE_ID>
HMDB00761

> <DATABASE_NAME>
hmdb

> <SMILES>
[H][C@@]12CC[C@H]([C@H](C)CCC(O)=O)[C@@]1(C)CC[C@@]1([H])[C@@]2([H])CCC2C[C@H](O)CC[C@]12C

> <INCHI_IDENTIFIER>
InChI=1S/C24H40O3/c1-15(4-9-22(26)27)19-7-8-20-18-6-5-16-14-17(25)10-12-23(16,2)21(18)11-13-24(19,20)3/h15-21,25H,4-14H2,1-3H3,(H,26,27)/t15-,16?,17-,18+,19-,20+,21+,23+,24-/m1/s1

> <INCHI_KEY>
SMEROWZSTRWXGI-YPLGJCPNSA-N

> <FORMULA>
C24H40O3

> <MOLECULAR_WEIGHT>
376.5726

> <EXACT_MASS>
376.297745146

> <JCHEM_ACCEPTOR_COUNT>
3

> <JCHEM_AVERAGE_POLARIZABILITY>
45.804018477745615

> <JCHEM_BIOAVAILABILITY>
1

> <JCHEM_DONOR_COUNT>
2

> <JCHEM_FORMAL_CHARGE>
0

> <JCHEM_GHOSE_FILTER>
1

> <JCHEM_IUPAC>
(4R)-4-[(1S,2S,5R,10R,11S,14R,15R)-5-hydroxy-2,15-dimethyltetracyclo[8.7.0.0²,⁷.0¹¹,¹⁵]heptadecan-14-yl]pentanoic acid

> <ALOGPS_LOGP>
4.38

> <JCHEM_LOGP>
5.022070320666666

> <ALOGPS_LOGS>
-5.87

> <JCHEM_MDDR_LIKE_RULE>
0

> <JCHEM_NUMBER_OF_RINGS>
4

> <JCHEM_PHYSIOLOGICAL_CHARGE>
-1

> <JCHEM_PKA>
18.296396321121705

> <JCHEM_PKA_STRONGEST_ACIDIC>
4.791043111632056

> <JCHEM_PKA_STRONGEST_BASIC>
-1.3569565580180343

> <JCHEM_POLAR_SURFACE_AREA>
57.53

> <JCHEM_REFRACTIVITY>
107.68129999999998

> <JCHEM_ROTATABLE_BOND_COUNT>
4

> <JCHEM_RULE_OF_FIVE>
0

> <ALOGPS_SOLUBILITY>
5.05e-04 g/l

> <JCHEM_TRADITIONAL_IUPAC>
acid, lithocholic

> <JCHEM_VEBER_RULE>
0

> <HMDB_ID>
HMDB00761

> <GENERIC_NAME>
Lithocholic acid

> <SYNONYMS>
(3a,5b)-3-hydroxy-cholan-24-oate; (3a,5b)-3-hydroxy-cholan-24-oic acid; 3a-Hydroxy-5b-cholan-24-oate; 3a-Hydroxy-5b-cholan-24-oic acid; Lithocholate

$$$$
