3-Hydroxydodecanoic acid.mol
  Mrv0541 02231218292D          

 15 14  0  0  0  0            999 V2000
   -2.8875    0.0000    0.0000 C   0  0  0  0  0  0  0  0  0  0  0  0
   -2.4750    0.7145    0.0000 C   0  0  0  0  0  0  0  0  0  0  0  0
   -1.6500    0.7145    0.0000 C   0  0  0  0  0  0  0  0  0  0  0  0
   -1.2375    1.4289    0.0000 C   0  0  0  0  0  0  0  0  0  0  0  0
   -0.4125    1.4289    0.0000 C   0  0  0  0  0  0  0  0  0  0  0  0
    0.0000    0.7145    0.0000 C   0  0  0  0  0  0  0  0  0  0  0  0
    0.8250    0.7145    0.0000 C   0  0  0  0  0  0  0  0  0  0  0  0
    1.2375    0.0000    0.0000 C   0  0  0  0  0  0  0  0  0  0  0  0
    2.0625    0.0000    0.0000 C   0  0  0  0  0  0  0  0  0  0  0  0
    2.4750   -0.7145    0.0000 C   0  0  0  0  0  0  0  0  0  0  0  0
    3.3000   -0.7145    0.0000 C   0  0  0  0  0  0  0  0  0  0  0  0
    3.7125   -1.4289    0.0000 C   0  0  0  0  0  0  0  0  0  0  0  0
   -2.4750   -0.7145    0.0000 O   0  0  0  0  0  0  0  0  0  0  0  0
   -3.7125    0.0000    0.0000 O   0  0  0  0  0  0  0  0  0  0  0  0
   -1.2375    0.0000    0.0000 O   0  0  0  0  0  0  0  0  0  0  0  0
  1  2  1  0  0  0  0
  2  3  1  0  0  0  0
  3  4  1  0  0  0  0
  4  5  1  0  0  0  0
  5  6  1  0  0  0  0
  6  7  1  0  0  0  0
  7  8  1  0  0  0  0
  8  9  1  0  0  0  0
  9 10  1  0  0  0  0
 10 11  1  0  0  0  0
 11 12  1  0  0  0  0
  1 13  2  0  0  0  0
  1 14  1  0  0  0  0
  3 15  1  0  0  0  0
M  END
> <DATABASE_ID>
HMDB00387

> <DATABASE_NAME>
hmdb

> <SMILES>
CCCCCCCCCC(O)CC(O)=O

> <INCHI_IDENTIFIER>
InChI=1S/C12H24O3/c1-2-3-4-5-6-7-8-9-11(13)10-12(14)15/h11,13H,2-10H2,1H3,(H,14,15)

> <INCHI_KEY>
MUCMKTPAZLSKTL-UHFFFAOYSA-N

> <FORMULA>
C12H24O3

> <MOLECULAR_WEIGHT>
216.3172

> <EXACT_MASS>
216.172544634

> <JCHEM_ACCEPTOR_COUNT>
3

> <JCHEM_AVERAGE_POLARIZABILITY>
26.58618878484133

> <JCHEM_BIOAVAILABILITY>
1

> <JCHEM_DONOR_COUNT>
2

> <JCHEM_FORMAL_CHARGE>
0

> <JCHEM_GHOSE_FILTER>
1

> <JCHEM_IUPAC>
3-hydroxydodecanoic acid

> <ALOGPS_LOGP>
3.63

> <JCHEM_LOGP>
3.2474970506666665

> <ALOGPS_LOGS>
-2.80

> <JCHEM_MDDR_LIKE_RULE>
0

> <JCHEM_NUMBER_OF_RINGS>
0

> <JCHEM_PHYSIOLOGICAL_CHARGE>
-1

> <JCHEM_PKA>
15.288498288670866

> <JCHEM_PKA_STRONGEST_ACIDIC>
4.671850167040888

> <JCHEM_PKA_STRONGEST_BASIC>
-2.798587426318786

> <JCHEM_POLAR_SURFACE_AREA>
57.53

> <JCHEM_REFRACTIVITY>
60.1951

> <JCHEM_ROTATABLE_BOND_COUNT>
10

> <JCHEM_RULE_OF_FIVE>
1

> <ALOGPS_SOLUBILITY>
3.45e-01 g/l

> <JCHEM_TRADITIONAL_IUPAC>
3-hydroxydodecanoic acid

> <JCHEM_VEBER_RULE>
0

> <HMDB_ID>
HMDB00387

> <GENERIC_NAME>
3-Hydroxydodecanoic acid

> <SYNONYMS>
(RS)-3-Hydroxylaurate; (RS)-3-Hydroxylauric acid; 11:0(3-OH); 3-Hydroxy-dodecanoate; 3-Hydroxy-dodecanoic acid; 3-Hydroxydodecanoate; 3-Hydroxydodecanoic acid; 3-Hydroxylaurate; 3-Hydroxylauric acid; b-Hydroxydodecanoate; b-Hydroxydodecanoic acid; b-Hydroxylaurate; b-Hydroxylauric acid; beta-Hydroxydodecanoate; beta-Hydroxydodecanoic acid; beta-Hydroxylaurate; beta-Hydroxylauric acid; DL-b-Hydroxydodecanoate; DL-b-Hydroxydodecanoic acid; DL-beta-Hydroxydodecanoate; DL-beta-Hydroxydodecanoic acid

$$$$
