
  Mrv0541 02231218392D          

 14 13  0  0  1  0            999 V2000
   21.4745  -15.1316    0.0000 O   0  0  0  0  0  0  0  0  0  0  0  0
   20.7601  -17.1942    0.0000 O   0  0  0  0  0  0  0  0  0  0  0  0
   22.1891  -17.1942    0.0000 O   0  0  0  0  0  0  0  0  0  0  0  0
   20.0456  -15.1316    0.0000 O   0  0  0  0  0  0  0  0  0  0  0  0
   23.6180  -16.3692    0.0000 O   0  0  0  0  0  0  0  0  0  0  0  0
   18.6166  -15.9566    0.0000 O   0  0  0  0  0  0  0  0  0  0  0  0
   22.9035  -15.1316    0.0000 O   0  0  0  0  0  0  0  0  0  0  0  0
   19.3311  -17.1942    0.0000 O   0  0  0  0  0  0  0  0  0  0  0  0
   21.4745  -15.9566    0.0000 C   0  0  2  0  0  0  0  0  0  0  0  0
   20.7601  -16.3692    0.0000 C   0  0  1  0  0  0  0  0  0  0  0  0
   22.1891  -16.3692    0.0000 C   0  0  1  0  0  0  0  0  0  0  0  0
   20.0456  -15.9566    0.0000 C   0  0  2  0  0  0  0  0  0  0  0  0
   22.9035  -15.9566    0.0000 C   0  0  0  0  0  0  0  0  0  0  0  0
   19.3311  -16.3692    0.0000 C   0  0  0  0  0  0  0  0  0  0  0  0
  9  1  1  1  0  0  0
 10  2  1  6  0  0  0
 11  3  1  1  0  0  0
 12  4  1  6  0  0  0
  5 13  1  0  0  0  0
  6 14  1  0  0  0  0
  7 13  2  0  0  0  0
  8 14  2  0  0  0  0
  9 10  1  0  0  0  0
  9 11  1  0  0  0  0
 10 12  1  0  0  0  0
 11 13  1  0  0  0  0
 12 14  1  0  0  0  0
M  END
> <DATABASE_ID>
HMDB00639

> <DATABASE_NAME>
hmdb

> <SMILES>
O[C@@H]([C@@H](O)[C@H](O)C(O)=O)[C@@H](O)C(O)=O

> <INCHI_IDENTIFIER>
InChI=1S/C6H10O8/c7-1(3(9)5(11)12)2(8)4(10)6(13)14/h1-4,7-10H,(H,11,12)(H,13,14)/t1-,2+,3+,4-

> <INCHI_KEY>
DSLZVSRJTYRBFB-DUHBMQHGSA-N

> <FORMULA>
C6H10O8

> <MOLECULAR_WEIGHT>
210.1388

> <EXACT_MASS>
210.037567296

> <JCHEM_ACCEPTOR_COUNT>
8

> <JCHEM_AVERAGE_POLARIZABILITY>
17.136003391184204

> <JCHEM_BIOAVAILABILITY>
1

> <JCHEM_DONOR_COUNT>
6

> <JCHEM_FORMAL_CHARGE>
0

> <JCHEM_GHOSE_FILTER>
0

> <JCHEM_IUPAC>
(2R,3S,4R,5S)-2,3,4,5-tetrahydroxyhexanedioic acid

> <ALOGPS_LOGP>
-1.77

> <JCHEM_LOGP>
-3.089469772666667

> <ALOGPS_LOGS>
-0.52

> <JCHEM_MDDR_LIKE_RULE>
0

> <JCHEM_NUMBER_OF_RINGS>
0

> <JCHEM_PHYSIOLOGICAL_CHARGE>
-2

> <JCHEM_PKA>
3.5410690508784013

> <JCHEM_PKA_STRONGEST_ACIDIC>
2.828604159490999

> <JCHEM_PKA_STRONGEST_BASIC>
-3.7307040369214137

> <JCHEM_POLAR_SURFACE_AREA>
155.52

> <JCHEM_REFRACTIVITY>
38.13840000000001

> <JCHEM_ROTATABLE_BOND_COUNT>
5

> <JCHEM_RULE_OF_FIVE>
0

> <ALOGPS_SOLUBILITY>
6.31e+01 g/l

> <JCHEM_TRADITIONAL_IUPAC>
mucin

> <JCHEM_VEBER_RULE>
0

> <HMDB_ID>
HMDB00639

> <GENERIC_NAME>
Galactaric acid

> <SYNONYMS>
(2R,3S,4R,5S)-2,3,4,5-tetrahydroxyhexanedioate; (2R,3S,4R,5S)-2,3,4,5-tetrahydroxyhexanedioic acid; D-Galactaric acid; Galactarate; Galactosaccharate; Galactosaccharic acid; Hexaric acid; Meso-galactaric acid; Mucic acid; Saccharolactate; Saccharolactic acid; Schleimsaure

$$$$
