
  Mrv0541 02231219412D          

 20 21  0  0  0  0            999 V2000
   31.2785  -18.6025    0.0000 O   0  0  0  0  0  0  0  0  0  0  0  0
   33.4219  -19.8400    0.0000 O   0  0  0  0  0  0  0  0  0  0  0  0
   30.5640  -19.8400    0.0000 O   0  0  0  0  0  0  0  0  0  0  0  0
   31.9930  -22.3151    0.0000 O   0  0  0  0  0  0  0  0  0  0  0  0
   35.5654  -16.1275    0.0000 O   0  0  0  0  0  0  0  0  0  0  0  0
   32.7075  -17.7775    0.0000 C   0  0  0  0  0  0  0  0  0  0  0  0
   32.7075  -18.6025    0.0000 C   0  0  0  0  0  0  0  0  0  0  0  0
   33.4219  -17.3650    0.0000 C   0  0  0  0  0  0  0  0  0  0  0  0
   31.9930  -19.0150    0.0000 C   0  0  0  0  0  0  0  0  0  0  0  0
   31.9930  -19.8400    0.0000 C   0  0  0  0  0  0  0  0  0  0  0  0
   33.4219  -16.5400    0.0000 C   0  0  0  0  0  0  0  0  0  0  0  0
   34.1365  -17.7775    0.0000 C   0  0  0  0  0  0  0  0  0  0  0  0
   32.7075  -20.2526    0.0000 C   0  0  0  0  0  0  0  0  0  0  0  0
   31.2785  -20.2526    0.0000 C   0  0  0  0  0  0  0  0  0  0  0  0
   32.7075  -21.0776    0.0000 C   0  0  0  0  0  0  0  0  0  0  0  0
   31.2785  -21.0776    0.0000 C   0  0  0  0  0  0  0  0  0  0  0  0
   34.1365  -16.1275    0.0000 C   0  0  0  0  0  0  0  0  0  0  0  0
   34.8509  -17.3650    0.0000 C   0  0  0  0  0  0  0  0  0  0  0  0
   31.9930  -21.4901    0.0000 C   0  0  0  0  0  0  0  0  0  0  0  0
   34.8509  -16.5400    0.0000 C   0  0  0  0  0  0  0  0  0  0  0  0
  1  9  2  0  0  0  0
  2 13  1  0  0  0  0
  3 14  1  0  0  0  0
  4 19  1  0  0  0  0
  5 20  1  0  0  0  0
  6  7  1  0  0  0  0
  6  8  1  0  0  0  0
  7  9  1  0  0  0  0
  8 11  2  0  0  0  0
  8 12  1  0  0  0  0
  9 10  1  0  0  0  0
 10 13  2  0  0  0  0
 10 14  1  0  0  0  0
 11 17  1  0  0  0  0
 12 18  2  0  0  0  0
 13 15  1  0  0  0  0
 14 16  2  0  0  0  0
 15 19  2  0  0  0  0
 16 19  1  0  0  0  0
 17 20  2  0  0  0  0
 18 20  1  0  0  0  0
M  END
> <DATABASE_ID>
HMDB03306

> <DATABASE_NAME>
hmdb

> <SMILES>
OC1=CC=C(CCC(=O)C2=C(O)C=C(O)C=C2O)C=C1

> <INCHI_IDENTIFIER>
InChI=1S/C15H14O5/c16-10-4-1-9(2-5-10)3-6-12(18)15-13(19)7-11(17)8-14(15)20/h1-2,4-5,7-8,16-17,19-20H,3,6H2

> <INCHI_KEY>
VGEREEWJJVICBM-UHFFFAOYSA-N

> <FORMULA>
C15H14O5

> <MOLECULAR_WEIGHT>
274.2687

> <EXACT_MASS>
274.084123558

> <JCHEM_ACCEPTOR_COUNT>
5

> <JCHEM_AVERAGE_POLARIZABILITY>
27.75095735522598

> <JCHEM_BIOAVAILABILITY>
1

> <JCHEM_DONOR_COUNT>
4

> <JCHEM_FORMAL_CHARGE>
0

> <JCHEM_GHOSE_FILTER>
1

> <JCHEM_IUPAC>
3-(4-hydroxyphenyl)-1-(2,4,6-trihydroxyphenyl)propan-1-one

> <ALOGPS_LOGP>
2.23

> <JCHEM_LOGP>
3.8955405326666663

> <ALOGPS_LOGS>
-3.32

> <JCHEM_MDDR_LIKE_RULE>
0

> <JCHEM_NUMBER_OF_RINGS>
2

> <JCHEM_PHYSIOLOGICAL_CHARGE>
0

> <JCHEM_PKA>
9.488801883332911

> <JCHEM_PKA_STRONGEST_ACIDIC>
7.999605260048354

> <JCHEM_PKA_STRONGEST_BASIC>
-3.6084188224477183

> <JCHEM_POLAR_SURFACE_AREA>
97.99000000000001

> <JCHEM_REFRACTIVITY>
73.70730000000002

> <JCHEM_ROTATABLE_BOND_COUNT>
4

> <JCHEM_RULE_OF_FIVE>
1

> <ALOGPS_SOLUBILITY>
1.32e-01 g/l

> <JCHEM_TRADITIONAL_IUPAC>
phloretin

> <JCHEM_VEBER_RULE>
0

> <HMDB_ID>
HMDB03306

> <GENERIC_NAME>
Phloretin

> <SYNONYMS>
2,6-Dihydroxy-4-methoxyacetophenone; 4-O-Methylphloracetophenone; Dihydronaringenin; Phloretol

$$$$
