
  Mrv0541 02231218442D          

 12 12  0  0  0  0            999 V2000
   12.4931   -7.6450    0.0000 O   0  0  0  0  0  0  0  0  0  0  0  0
   12.0806   -6.9309    0.0000 C   0  0  0  0  0  0  0  0  0  0  0  0
   11.2556   -6.9309    0.0000 C   0  0  0  0  0  0  0  0  0  0  0  0
   10.8431   -6.2165    0.0000 C   0  0  0  0  0  0  0  0  0  0  0  0
   11.2556   -5.5019    0.0000 C   0  0  0  0  0  0  0  0  0  0  0  0
   10.8431   -4.7874    0.0000 C   0  0  0  0  0  0  0  0  0  0  0  0
   10.0181   -4.7874    0.0000 C   0  0  0  0  0  0  0  0  0  0  0  0
    9.6056   -5.5019    0.0000 C   0  0  0  0  0  0  0  0  0  0  0  0
   10.0181   -6.2165    0.0000 C   0  0  0  0  0  0  0  0  0  0  0  0
   12.4931   -6.2165    0.0000 C   0  0  0  0  0  0  0  0  0  0  0  0
   13.3181   -6.2165    0.0000 O   0  0  0  0  0  0  0  0  0  0  0  0
   12.0806   -5.5019    0.0000 O   0  0  0  0  0  0  0  0  0  0  0  0
  1  2  1  0  0  0  0
  2  3  1  0  0  0  0
  2 10  1  0  0  0  0
  3  4  1  0  0  0  0
  4  5  2  0  0  0  0
  4  9  1  0  0  0  0
  5  6  1  0  0  0  0
  6  7  2  0  0  0  0
  7  8  1  0  0  0  0
  8  9  2  0  0  0  0
 10 11  1  0  0  0  0
 10 12  2  0  0  0  0
M  END
> <DATABASE_ID>
HMDB00779

> <DATABASE_NAME>
hmdb

> <SMILES>
OC(CC1=CC=CC=C1)C(O)=O

> <INCHI_IDENTIFIER>
InChI=1S/C9H10O3/c10-8(9(11)12)6-7-4-2-1-3-5-7/h1-5,8,10H,6H2,(H,11,12)

> <INCHI_KEY>
VOXXWSYKYCBWHO-UHFFFAOYSA-N

> <FORMULA>
C9H10O3

> <MOLECULAR_WEIGHT>
166.1739

> <EXACT_MASS>
166.062994186

> <JCHEM_ACCEPTOR_COUNT>
3

> <JCHEM_AVERAGE_POLARIZABILITY>
16.695303880154515

> <JCHEM_BIOAVAILABILITY>
1

> <JCHEM_DONOR_COUNT>
2

> <JCHEM_FORMAL_CHARGE>
0

> <JCHEM_GHOSE_FILTER>
1

> <JCHEM_IUPAC>
2-hydroxy-3-phenylpropanoic acid

> <ALOGPS_LOGP>
0.84

> <JCHEM_LOGP>
1.1844968496666666

> <ALOGPS_LOGS>
-1.23

> <JCHEM_MDDR_LIKE_RULE>
0

> <JCHEM_NUMBER_OF_RINGS>
1

> <JCHEM_PHYSIOLOGICAL_CHARGE>
-1

> <JCHEM_PKA>
14.19195842902614

> <JCHEM_PKA_STRONGEST_ACIDIC>
4.020980916532307

> <JCHEM_PKA_STRONGEST_BASIC>
-3.837374293517553

> <JCHEM_POLAR_SURFACE_AREA>
57.53

> <JCHEM_REFRACTIVITY>
43.458800000000004

> <JCHEM_ROTATABLE_BOND_COUNT>
3

> <JCHEM_RULE_OF_FIVE>
1

> <ALOGPS_SOLUBILITY>
9.80e+00 g/l

> <JCHEM_TRADITIONAL_IUPAC>
Î²-phenyllactic acid

> <JCHEM_VEBER_RULE>
0

> <HMDB_ID>
HMDB00779

> <GENERIC_NAME>
Phenyllactic acid

> <SYNONYMS>
2-Hydroxy-3-phenylpropanoate; 2-Hydroxy-3-phenylpropanoic acid; 2-Hydroxy-3-phenylpropionate; 2-Hydroxy-3-phenylpropionic acid; 3-Phenyl-2-hydroxypropanoate; 3-Phenyl-2-hydroxypropanoic acid; 3-Phenyllactate; 3-Phenyllactic acid; a-Hydroxybenzenepropanoate; a-Hydroxybenzenepropanoic acid; alpha-Hydroxybenzenepropanoate; alpha-Hydroxybenzenepropanoic acid; b-Phenyllactate; beta-Phenyllactate; beta-Phenyllactic acid; DL-2-Hydroxy-3-phenylpropionate; DL-2-Hydroxy-3-phenylpropionic acid; DL-3-Phenyllactate; DL-3-Phenyllactic acid; DL-b-Phenyllactate; DL-b-Phenyllactic acid; DL-beta-Phenyllactate; DL-beta-Phenyllactic acid; Phenyllactate

$$$$
