
  Mrv0541 02231220312D          

  7  6  0  0  0  0            999 V2000
   15.7469   -4.6063    0.0000 O   0  0  0  0  0  0  0  0  0  0  0  0
   17.8904   -3.3688    0.0000 C   0  0  0  0  0  0  0  0  0  0  0  0
   17.1759   -3.7813    0.0000 C   0  0  0  0  0  0  0  0  0  0  0  0
   18.6048   -3.7813    0.0000 C   0  0  0  0  0  0  0  0  0  0  0  0
   16.4614   -3.3688    0.0000 C   0  0  0  0  0  0  0  0  0  0  0  0
   19.3194   -3.3688    0.0000 C   0  0  0  0  0  0  0  0  0  0  0  0
   15.7469   -3.7813    0.0000 C   0  0  0  0  0  0  0  0  0  0  0  0
  1  7  2  0  0  0  0
  2  3  1  0  0  0  0
  2  4  1  0  0  0  0
  3  5  1  0  0  0  0
  4  6  1  0  0  0  0
  5  7  1  0  0  0  0
M  END
> <DATABASE_ID>
HMDB05994

> <DATABASE_NAME>
hmdb

> <SMILES>
CCCCCC=O

> <INCHI_IDENTIFIER>
InChI=1S/C6H12O/c1-2-3-4-5-6-7/h6H,2-5H2,1H3

> <INCHI_KEY>
JARKCYVAAOWBJS-UHFFFAOYSA-N

> <FORMULA>
C6H12O

> <MOLECULAR_WEIGHT>
100.1589

> <EXACT_MASS>
100.088815006

> <JCHEM_ACCEPTOR_COUNT>
1

> <JCHEM_AVERAGE_POLARIZABILITY>
12.32467328566577

> <JCHEM_BIOAVAILABILITY>
1

> <JCHEM_DONOR_COUNT>
0

> <JCHEM_FORMAL_CHARGE>
0

> <JCHEM_GHOSE_FILTER>
0

> <JCHEM_IUPAC>
hexanal

> <ALOGPS_LOGP>
2.37

> <JCHEM_LOGP>
1.6522798753333334

> <ALOGPS_LOGS>
-1.35

> <JCHEM_MDDR_LIKE_RULE>
0

> <JCHEM_NUMBER_OF_RINGS>
0

> <JCHEM_PHYSIOLOGICAL_CHARGE>
0

> <JCHEM_PKA_STRONGEST_ACIDIC>
15.5588390285601

> <JCHEM_PKA_STRONGEST_BASIC>
-6.944305972130752

> <JCHEM_POLAR_SURFACE_AREA>
17.07

> <JCHEM_REFRACTIVITY>
30.148199999999996

> <JCHEM_ROTATABLE_BOND_COUNT>
4

> <JCHEM_RULE_OF_FIVE>
1

> <ALOGPS_SOLUBILITY>
4.49e+00 g/l

> <JCHEM_TRADITIONAL_IUPAC>
hexanal

> <JCHEM_VEBER_RULE>
1

> <HMDB_ID>
HMDB05994

> <GENERIC_NAME>
Hexanal

> <SYNONYMS>
Caproaldehyde; Caproic aldehyde; Capronaldehyde; Hexaldehyde; Hexanaldehyde; Hexylaldehyde; N-Caproaldehyde; N-Hexanal; N-Hexylaldehyde

$$$$
