
  Mrv0541 02231219182D          

 26 25  0  0  0  0            999 V2000
    8.9542   -3.3688    0.0000 O   0  0  0  0  0  0  0  0  0  0  0  0
    9.6688   -4.6063    0.0000 O   0  0  0  0  0  0  0  0  0  0  0  0
   18.2425   -3.7813    0.0000 C   0  0  0  0  0  0  0  0  0  0  0  0
   17.5279   -3.3688    0.0000 C   0  0  0  0  0  0  0  0  0  0  0  0
   18.9569   -3.3688    0.0000 C   0  0  0  0  0  0  0  0  0  0  0  0
   16.8135   -3.7813    0.0000 C   0  0  0  0  0  0  0  0  0  0  0  0
   19.6713   -3.7813    0.0000 C   0  0  0  0  0  0  0  0  0  0  0  0
   16.0990   -3.3688    0.0000 C   0  0  0  0  0  0  0  0  0  0  0  0
   20.3858   -3.3688    0.0000 C   0  0  0  0  0  0  0  0  0  0  0  0
   15.3845   -3.7813    0.0000 C   0  0  0  0  0  0  0  0  0  0  0  0
   21.1003   -3.7813    0.0000 C   0  0  0  0  0  0  0  0  0  0  0  0
   14.6701   -3.3688    0.0000 C   0  0  0  0  0  0  0  0  0  0  0  0
   21.8148   -3.3688    0.0000 C   0  0  0  0  0  0  0  0  0  0  0  0
   13.9556   -3.7813    0.0000 C   0  0  0  0  0  0  0  0  0  0  0  0
   22.5292   -3.7813    0.0000 C   0  0  0  0  0  0  0  0  0  0  0  0
   13.2411   -3.3688    0.0000 C   0  0  0  0  0  0  0  0  0  0  0  0
   23.2437   -3.3688    0.0000 C   0  0  0  0  0  0  0  0  0  0  0  0
   12.5267   -3.7813    0.0000 C   0  0  0  0  0  0  0  0  0  0  0  0
   23.9582   -3.7813    0.0000 C   0  0  0  0  0  0  0  0  0  0  0  0
   11.8121   -3.3688    0.0000 C   0  0  0  0  0  0  0  0  0  0  0  0
   24.6726   -3.3688    0.0000 C   0  0  0  0  0  0  0  0  0  0  0  0
   11.0977   -3.7813    0.0000 C   0  0  0  0  0  0  0  0  0  0  0  0
   25.3871   -3.7813    0.0000 C   0  0  0  0  0  0  0  0  0  0  0  0
   10.3832   -3.3688    0.0000 C   0  0  0  0  0  0  0  0  0  0  0  0
   26.1016   -3.3688    0.0000 C   0  0  0  0  0  0  0  0  0  0  0  0
    9.6688   -3.7813    0.0000 C   0  0  0  0  0  0  0  0  0  0  0  0
  1 26  1  0  0  0  0
  2 26  2  0  0  0  0
  3  4  1  0  0  0  0
  3  5  1  0  0  0  0
  4  6  1  0  0  0  0
  5  7  1  0  0  0  0
  6  8  1  0  0  0  0
  7  9  1  0  0  0  0
  8 10  1  0  0  0  0
  9 11  1  0  0  0  0
 10 12  1  0  0  0  0
 11 13  1  0  0  0  0
 12 14  1  0  0  0  0
 13 15  1  0  0  0  0
 14 16  1  0  0  0  0
 15 17  1  0  0  0  0
 16 18  1  0  0  0  0
 17 19  1  0  0  0  0
 18 20  1  0  0  0  0
 19 21  1  0  0  0  0
 20 22  1  0  0  0  0
 21 23  1  0  0  0  0
 22 24  1  0  0  0  0
 23 25  1  0  0  0  0
 24 26  1  0  0  0  0
M  END
> <DATABASE_ID>
HMDB02003

> <DATABASE_NAME>
hmdb

> <SMILES>
CCCCCCCCCCCCCCCCCCCCCCCC(O)=O

> <INCHI_IDENTIFIER>
InChI=1S/C24H48O2/c1-2-3-4-5-6-7-8-9-10-11-12-13-14-15-16-17-18-19-20-21-22-23-24(25)26/h2-23H2,1H3,(H,25,26)

> <INCHI_KEY>
QZZGJDVWLFXDLK-UHFFFAOYSA-N

> <FORMULA>
C24H48O2

> <MOLECULAR_WEIGHT>
368.6367

> <EXACT_MASS>
368.36543078

> <JCHEM_ACCEPTOR_COUNT>
2

> <JCHEM_AVERAGE_POLARIZABILITY>
51.573403392666435

> <JCHEM_BIOAVAILABILITY>
0

> <JCHEM_DONOR_COUNT>
1

> <JCHEM_FORMAL_CHARGE>
0

> <JCHEM_GHOSE_FILTER>
0

> <JCHEM_IUPAC>
tetracosanoic acid

> <ALOGPS_LOGP>
9.56

> <JCHEM_LOGP>
9.813132097666667

> <ALOGPS_LOGS>
-7.21

> <JCHEM_MDDR_LIKE_RULE>
0

> <JCHEM_NUMBER_OF_RINGS>
0

> <JCHEM_PHYSIOLOGICAL_CHARGE>
-1

> <JCHEM_PKA_STRONGEST_ACIDIC>
4.952019655228562

> <JCHEM_POLAR_SURFACE_AREA>
37.3

> <JCHEM_REFRACTIVITY>
113.89159999999998

> <JCHEM_ROTATABLE_BOND_COUNT>
22

> <JCHEM_RULE_OF_FIVE>
0

> <ALOGPS_SOLUBILITY>
2.27e-05 g/l

> <JCHEM_TRADITIONAL_IUPAC>
lignoceric acid

> <JCHEM_VEBER_RULE>
0

> <HMDB_ID>
HMDB02003

> <GENERIC_NAME>
Tetracosanoic acid

> <SYNONYMS>
Lignocerate; Lignoceric acid; N-Tetracosanoate; N-Tetracosanoic acid; Tetracosanoate; Tetracosanoic acid

$$$$
