Inosine triphosphate.mol
  Mrv0541 02231218222D          

 31 33  0  0  0  0            999 V2000
    1.4441   -0.7403    0.0000 C   0  0  0  0  0  0  0  0  0  0  0  0
    0.6594   -0.9952    0.0000 C   0  0  2  0  0  0  0  0  0  0  0  0
    0.4045   -1.7798    0.0000 C   0  0  1  0  0  0  0  0  0  0  0  0
    0.8894   -2.4473    0.0000 O   0  0  0  0  0  0  0  0  0  0  0  0
   -0.4205   -1.7798    0.0000 C   0  0  1  0  0  0  0  0  0  0  0  0
   -0.9054   -2.4473    0.0000 O   0  0  0  0  0  0  0  0  0  0  0  0
   -0.6754   -0.9952    0.0000 C   0  0  1  0  0  0  0  0  0  0  0  0
   -0.0080   -0.5103    0.0000 O   0  0  0  0  0  0  0  0  0  0  0  0
   -1.4601   -0.7403    0.0000 N   0  0  0  0  0  0  0  0  0  0  0  0
   -2.1275   -1.2252    0.0000 C   0  0  0  0  0  0  0  0  0  0  0  0
   -2.7949   -0.7403    0.0000 N   0  0  0  0  0  0  0  0  0  0  0  0
   -2.5400    0.0443    0.0000 C   0  0  0  0  0  0  0  0  0  0  0  0
   -2.9525    0.7588    0.0000 C   0  0  0  0  0  0  0  0  0  0  0  0
   -3.7775    0.7588    0.0000 O   0  0  0  0  0  0  0  0  0  0  0  0
   -2.5400    1.4733    0.0000 N   0  0  0  0  0  0  0  0  0  0  0  0
   -1.7150    1.4733    0.0000 C   0  0  0  0  0  0  0  0  0  0  0  0
   -1.3025    0.7588    0.0000 N   0  0  0  0  0  0  0  0  0  0  0  0
   -1.7150    0.0443    0.0000 C   0  0  0  0  0  0  0  0  0  0  0  0
    2.8243   -1.1101    0.0000 P   0  0  0  0  0  0  0  0  0  0  0  0
    3.6212   -0.8966    0.0000 O   0  0  0  0  0  0  0  0  0  0  0  0
    2.0274   -1.3236    0.0000 O   0  0  0  0  0  0  0  0  0  0  0  0
    3.0378   -1.9070    0.0000 O   0  0  0  0  0  0  0  0  0  0  0  0
    2.6108   -0.3132    0.0000 O   0  0  0  0  0  0  0  0  0  0  0  0
    3.1941    0.2701    0.0000 P   0  0  0  0  0  0  0  0  0  0  0  0
    3.7775    0.8535    0.0000 O   0  0  0  0  0  0  0  0  0  0  0  0
    3.7775   -0.3132    0.0000 O   0  0  0  0  0  0  0  0  0  0  0  0
    2.6108    0.8535    0.0000 O   0  0  0  0  0  0  0  0  0  0  0  0
    2.8243    1.6504    0.0000 P   0  0  0  0  0  0  0  0  0  0  0  0
    2.0274    1.8639    0.0000 O   0  0  0  0  0  0  0  0  0  0  0  0
    3.0378    2.4473    0.0000 O   0  0  0  0  0  0  0  0  0  0  0  0
    3.6212    1.4369    0.0000 O   0  0  0  0  0  0  0  0  0  0  0  0
  2  1  1  6  0  0  0
  2  3  1  0  0  0  0
  3  4  1  1  0  0  0
  3  5  1  0  0  0  0
  5  6  1  1  0  0  0
  5  7  1  0  0  0  0
  7  8  1  6  0  0  0
  2  8  1  0  0  0  0
  7  9  1  0  0  0  0
  9 10  1  0  0  0  0
 10 11  2  0  0  0  0
 11 12  1  0  0  0  0
 12 13  1  0  0  0  0
 13 14  1  0  0  0  0
 13 15  2  0  0  0  0
 15 16  1  0  0  0  0
 16 17  2  0  0  0  0
 17 18  1  0  0  0  0
 12 18  2  0  0  0  0
  9 18  1  0  0  0  0
 19 20  2  0  0  0  0
 19 21  1  0  0  0  0
 19 22  1  0  0  0  0
 19 23  1  0  0  0  0
 23 24  1  0  0  0  0
 24 25  2  0  0  0  0
 24 26  1  0  0  0  0
 24 27  1  0  0  0  0
 27 28  1  0  0  0  0
 28 29  2  0  0  0  0
 28 30  1  0  0  0  0
 28 31  1  0  0  0  0
  1 21  1  0  0  0  0
M  END
> <DATABASE_ID>
HMDB00189

> <DATABASE_NAME>
hmdb

> <SMILES>
O[C@@H]1[C@@H](COP(O)(=O)OP(O)(=O)OP(O)(O)=O)O[C@H]([C@@H]1O)N1C=NC2=C1N=CN=C2O

> <INCHI_IDENTIFIER>
InChI=1S/C10H15N4O14P3/c15-6-4(1-25-30(21,22)28-31(23,24)27-29(18,19)20)26-10(7(6)16)14-3-13-5-8(14)11-2-12-9(5)17/h2-4,6-7,10,15-16H,1H2,(H,21,22)(H,23,24)(H,11,12,17)(H2,18,19,20)/t4-,6-,7-,10-/m1/s1

> <INCHI_KEY>
HAEJPQIATWHALX-KQYNXXCUSA-N

> <FORMULA>
C10H15N4O14P3

> <MOLECULAR_WEIGHT>
508.1658

> <EXACT_MASS>
507.979760744

> <JCHEM_ACCEPTOR_COUNT>
14

> <JCHEM_AVERAGE_POLARIZABILITY>
38.01182401406581

> <JCHEM_BIOAVAILABILITY>
0

> <JCHEM_DONOR_COUNT>
7

> <JCHEM_FORMAL_CHARGE>
0

> <JCHEM_GHOSE_FILTER>
0

> <JCHEM_IUPAC>
({[({[(2R,3S,4R,5R)-3,4-dihydroxy-5-(6-hydroxy-9H-purin-9-yl)oxolan-2-yl]methoxy}(hydroxy)phosphoryl)oxy](hydroxy)phosphoryl}oxy)phosphonic acid

> <ALOGPS_LOGP>
-0.67

> <JCHEM_LOGP>
-4.426220369682187

> <ALOGPS_LOGS>
-2.03

> <JCHEM_MDDR_LIKE_RULE>
1

> <JCHEM_NUMBER_OF_RINGS>
3

> <JCHEM_PHYSIOLOGICAL_CHARGE>
-3

> <JCHEM_PKA>
2.471702224755569

> <JCHEM_PKA_STRONGEST_ACIDIC>
0.93321901793544

> <JCHEM_PKA_STRONGEST_BASIC>
-0.17208547452411327

> <JCHEM_POLAR_SURFACE_AREA>
273.3399999999999

> <JCHEM_REFRACTIVITY>
93.09479999999998

> <JCHEM_ROTATABLE_BOND_COUNT>
8

> <JCHEM_RULE_OF_FIVE>
0

> <ALOGPS_SOLUBILITY>
4.78e+00 g/l

> <JCHEM_TRADITIONAL_IUPAC>
({[(2R,3S,4R,5R)-3,4-dihydroxy-5-(6-hydroxypurin-9-yl)oxolan-2-yl]methoxy(hydroxy)phosphoryl}oxy(hydroxy)phosphoryl)oxyphosphonic acid

> <JCHEM_VEBER_RULE>
0

> <HMDB_ID>
HMDB00189

> <GENERIC_NAME>
Inosine triphosphate

> <SYNONYMS>
2'-Inosine-5'-triphosphate; 5'-ITP; 5-ITP; Inosine 5; Inosine 5'-(tetrahydrogen triphosphate); Inosine 5'-triphosphate; Inosine 5(tetrahydrogen triphosphate); Inosine 5-triphopshate; Inosine triphosphate; Inosine tripolyphosphate; ITP; ITT

$$$$
