852
  Mrv0541 02231215032D          

 12 12  0  0  1  0            999 V2000
    1.6500    0.8250    0.0000 O   0  0  0  0  0  0  0  0  0  0  0  0
    3.0791    1.6500    0.0000 N   0  0  0  0  0  0  0  0  0  0  0  0
    3.0791    0.8250    0.0000 C   0  0  2  0  0  0  0  0  0  0  0  0
    2.3645    0.4125    0.0000 C   0  0  2  0  0  0  0  0  0  0  0  0
    2.3645   -0.4125    0.0000 C   0  0  0  0  0  0  0  0  0  0  0  0
    3.7935    0.4125    0.0000 C   0  0  0  0  0  0  0  0  0  0  0  0
    3.0791   -0.8250    0.0000 C   0  0  0  0  0  0  0  0  0  0  0  0
    1.6500   -0.8250    0.0000 C   0  0  0  0  0  0  0  0  0  0  0  0
    3.7935    2.0625    0.0000 C   0  0  0  0  0  0  0  0  0  0  0  0
    3.0791   -1.6500    0.0000 C   0  0  0  0  0  0  0  0  0  0  0  0
    1.6500   -1.6500    0.0000 C   0  0  0  0  0  0  0  0  0  0  0  0
    2.3645   -2.0625    0.0000 C   0  0  0  0  0  0  0  0  0  0  0  0
  4  1  1  6  0  0  0
  3  2  1  1  0  0  0
  2  9  1  0  0  0  0
  3  4  1  0  0  0  0
  3  6  1  0  0  0  0
  4  5  1  0  0  0  0
  5  7  2  0  0  0  0
  5  8  1  0  0  0  0
  7 10  1  0  0  0  0
  8 11  2  0  0  0  0
 10 12  2  0  0  0  0
 11 12  1  0  0  0  0
M  END
> <DATABASE_ID>
HMDB01943

> <DATABASE_NAME>
hmdb

> <SMILES>
CN[C@@H](C)[C@@H](O)C1=CC=CC=C1

> <INCHI_IDENTIFIER>
InChI=1S/C10H15NO/c1-8(11-2)10(12)9-6-4-3-5-7-9/h3-8,10-12H,1-2H3/t8-,10+/m0/s1

> <INCHI_KEY>
KWGRBVOPPLSCSI-WCBMZHEXSA-N

> <FORMULA>
C10H15NO

> <MOLECULAR_WEIGHT>
165.2322

> <EXACT_MASS>
165.115364107

> <JCHEM_ACCEPTOR_COUNT>
2

> <JCHEM_AVERAGE_POLARIZABILITY>
18.826538197427176

> <JCHEM_BIOAVAILABILITY>
1

> <JCHEM_DONOR_COUNT>
2

> <JCHEM_FORMAL_CHARGE>
0

> <JCHEM_GHOSE_FILTER>
1

> <JCHEM_IUPAC>
(1S,2S)-2-(methylamino)-1-phenylpropan-1-ol

> <ALOGPS_LOGP>
1.00

> <JCHEM_LOGP>
1.3178347283333334

> <ALOGPS_LOGS>
-1.30

> <JCHEM_MDDR_LIKE_RULE>
0

> <JCHEM_NUMBER_OF_RINGS>
1

> <JCHEM_PHYSIOLOGICAL_CHARGE>
1

> <JCHEM_PKA_STRONGEST_ACIDIC>
13.889531450472283

> <JCHEM_PKA_STRONGEST_BASIC>
9.524908674853327

> <JCHEM_POLAR_SURFACE_AREA>
32.26

> <JCHEM_REFRACTIVITY>
49.68730000000001

> <JCHEM_ROTATABLE_BOND_COUNT>
3

> <JCHEM_RULE_OF_FIVE>
1

> <ALOGPS_SOLUBILITY>
8.26e+00 g/l

> <JCHEM_TRADITIONAL_IUPAC>
pseudoephedrine

> <JCHEM_VEBER_RULE>
1

> <HMDB_ID>
HMDB01943

> <GENERIC_NAME>
Pseudoephedrine

> <SYNONYMS>
(+)-(1S,2S)-Pseudoephedrine; (+)-Pseudoephedrine; (+)-psi-Ephedrine; (+)-threo-Ephedrine; (1S,2S)-(+)-Pseudoephedrine; (1S,2S)-Pseudoephedrine; 1-Ephedrine ; 2-(Methylamino)-1-phenyl-1-propanol; Besan; D-Isoephedrine; D-Pseudoephedrine; D-Pseudoephedrine base; D-Psi-2-Methylamino-1-phenyl-1-propanol; D-Psi-Ephedrine; Isoephedrine; L(+)-Psi-Ephedrine; L-(+)-Pseudoephedrine; Novafed; Pseudoefedrina; Pseudoephedrine; Pseudoephedrine D-form; Pseudoephedrine Ephedrine; Pseudoephedrinum; Psi-ephedrin; Sudafed; trans-Ephedrine

$$$$
