Mesaconic acid.mol
  Mrv0541 02231218432D          

  9  8  0  0  0  0            999 V2000
   -1.0717    0.2062    0.0000 C   0  0  0  0  0  0  0  0  0  0  0  0
   -0.3572   -0.2062    0.0000 C   0  0  0  0  0  0  0  0  0  0  0  0
   -0.3572   -1.0313    0.0000 C   0  0  0  0  0  0  0  0  0  0  0  0
    0.3572    0.2063    0.0000 C   0  0  0  0  0  0  0  0  0  0  0  0
    1.0717   -0.2062    0.0000 C   0  0  0  0  0  0  0  0  0  0  0  0
   -1.0717    1.0313    0.0000 O   0  0  0  0  0  0  0  0  0  0  0  0
   -1.7862   -0.2062    0.0000 O   0  0  0  0  0  0  0  0  0  0  0  0
    1.0717   -1.0312    0.0000 O   0  0  0  0  0  0  0  0  0  0  0  0
    1.7862    0.2063    0.0000 O   0  0  0  0  0  0  0  0  0  0  0  0
  1  2  1  0  0  0  0
  2  3  1  0  0  0  0
  2  4  2  0  0  0  0
  4  5  1  0  0  0  0
  1  6  2  0  0  0  0
  1  7  1  0  0  0  0
  5  8  2  0  0  0  0
  5  9  1  0  0  0  0
M  END
> <DATABASE_ID>
HMDB00749

> <DATABASE_NAME>
hmdb

> <SMILES>
C\C(=C/C(O)=O)C(O)=O

> <INCHI_IDENTIFIER>
InChI=1S/C5H6O4/c1-3(5(8)9)2-4(6)7/h2H,1H3,(H,6,7)(H,8,9)/b3-2+

> <INCHI_KEY>
HNEGQIOMVPPMNR-NSCUHMNNSA-N

> <FORMULA>
C5H6O4

> <MOLECULAR_WEIGHT>
130.0987

> <EXACT_MASS>
130.02660868

> <JCHEM_ACCEPTOR_COUNT>
4

> <JCHEM_AVERAGE_POLARIZABILITY>
11.241128315164056

> <JCHEM_BIOAVAILABILITY>
1

> <JCHEM_DONOR_COUNT>
2

> <JCHEM_FORMAL_CHARGE>
0

> <JCHEM_GHOSE_FILTER>
0

> <JCHEM_IUPAC>
(2E)-2-methylbut-2-enedioic acid

> <ALOGPS_LOGP>
0.21

> <JCHEM_LOGP>
0.35463615800000003

> <ALOGPS_LOGS>
-0.91

> <JCHEM_MDDR_LIKE_RULE>
0

> <JCHEM_NUMBER_OF_RINGS>
0

> <JCHEM_PHYSIOLOGICAL_CHARGE>
-2

> <JCHEM_PKA>
4.568292663140774

> <JCHEM_PKA_STRONGEST_ACIDIC>
3.722300394674802

> <JCHEM_POLAR_SURFACE_AREA>
74.6

> <JCHEM_REFRACTIVITY>
28.964100000000002

> <JCHEM_ROTATABLE_BOND_COUNT>
2

> <JCHEM_RULE_OF_FIVE>
1

> <ALOGPS_SOLUBILITY>
1.59e+01 g/l

> <JCHEM_TRADITIONAL_IUPAC>
mesaconic acid

> <JCHEM_VEBER_RULE>
0

> <HMDB_ID>
HMDB00749

> <GENERIC_NAME>
Mesaconic acid

> <SYNONYMS>
(2E)-2-Methyl-2-butenedioate; (2E)-2-Methyl-2-butenedioic acid; (E)-Citraconate; (E)-Citraconic acid; 2-Methylfumarate; 2-Methylfumaric acid; Citronate; Citronic acid; Mesaconate; Methylfumarate; Methylfumaric acid; trans-1-Propene-1,2-dicarboxylate; trans-1-Propene-1,2-dicarboxylic acid; trans-2-Methyl-2-butenedioate; trans-2-Methyl-2-butenedioic acid

$$$$
