
  Mrv0541 02231219022D          

 15 14  0  0  1  0            999 V2000
   -0.6105   -1.2009    0.0000 P   0  0  0  0  0  0  0  0  0  0  0  0
   -0.5970   -0.4327    0.0000 O   0  0  0  0  0  0  0  0  0  0  0  0
   -1.4089   -1.2009    0.0000 O   0  0  0  0  0  0  0  0  0  0  0  0
    0.1978   -1.2143    0.0000 O   0  0  0  0  0  0  0  0  0  0  0  0
   -0.6205   -1.9623    0.0000 O   0  0  0  0  0  0  0  0  0  0  0  0
   -0.5970    0.3958    0.0000 C   0  0  1  0  0  0  0  0  0  0  0  0
   -1.3149    0.8084    0.0000 C   0  0  0  0  0  0  0  0  0  0  0  0
    0.1174    0.8084    0.0000 C   0  0  0  0  0  0  0  0  0  0  0  0
   -2.0329    0.3958    0.0000 O   0  0  0  0  0  0  0  0  0  0  0  0
   -1.3149    1.6370    0.0000 O   0  0  0  0  0  0  0  0  0  0  0  0
    0.8353    0.3958    0.0000 O   0  0  0  0  0  0  0  0  0  0  0  0
    1.6336    0.3958    0.0000 P   0  0  0  0  0  0  0  0  0  0  0  0
    2.4420    0.3824    0.0000 O   0  0  0  0  0  0  0  0  0  0  0  0
    1.6437    1.1640    0.0000 O   0  0  0  0  0  0  0  0  0  0  0  0
    1.6236   -0.3656    0.0000 O   0  0  0  0  0  0  0  0  0  0  0  0
  1  2  1  0  0  0  0
  1  3  1  0  0  0  0
  1  4  1  0  0  0  0
  1  5  2  0  0  0  0
  6  2  1  1  0  0  0
  6  7  1  0  0  0  0
  6  8  1  0  0  0  0
  7  9  1  0  0  0  0
  7 10  2  0  0  0  0
  8 11  1  0  0  0  0
 11 12  1  0  0  0  0
 12 13  1  0  0  0  0
 12 14  1  0  0  0  0
 12 15  2  0  0  0  0
M  END
> <DATABASE_ID>
HMDB01294

> <DATABASE_NAME>
hmdb

> <SMILES>
OC(=O)[C@@H](COP(O)(O)=O)OP(O)(O)=O

> <INCHI_IDENTIFIER>
InChI=1S/C3H8O10P2/c4-3(5)2(13-15(9,10)11)1-12-14(6,7)8/h2H,1H2,(H,4,5)(H2,6,7,8)(H2,9,10,11)/t2-/m1/s1

> <INCHI_KEY>
XOHUEYCVLUUEJJ-UWTATZPHSA-N

> <FORMULA>
C3H8O10P2

> <MOLECULAR_WEIGHT>
266.0371

> <EXACT_MASS>
265.9592695

> <JCHEM_ACCEPTOR_COUNT>
8

> <JCHEM_AVERAGE_POLARIZABILITY>
17.96259643188524

> <JCHEM_BIOAVAILABILITY>
1

> <JCHEM_DONOR_COUNT>
5

> <JCHEM_FORMAL_CHARGE>
0

> <JCHEM_GHOSE_FILTER>
0

> <JCHEM_IUPAC>
(2R)-2,3-bis(phosphonooxy)propanoic acid

> <ALOGPS_LOGP>
-1.55

> <JCHEM_LOGP>
-1.765871547333333

> <ALOGPS_LOGS>
-1.44

> <JCHEM_MDDR_LIKE_RULE>
0

> <JCHEM_NUMBER_OF_RINGS>
0

> <JCHEM_PHYSIOLOGICAL_CHARGE>
-5

> <JCHEM_PKA>
1.2497332376712151

> <JCHEM_PKA_STRONGEST_ACIDIC>
0.4809321990127331

> <JCHEM_POLAR_SURFACE_AREA>
170.82

> <JCHEM_REFRACTIVITY>
42.1293

> <JCHEM_ROTATABLE_BOND_COUNT>
6

> <JCHEM_RULE_OF_FIVE>
1

> <ALOGPS_SOLUBILITY>
9.69e+00 g/l

> <JCHEM_TRADITIONAL_IUPAC>
diphosphoglycerate

> <JCHEM_VEBER_RULE>
0

> <HMDB_ID>
HMDB01294

> <GENERIC_NAME>
2,3-Diphosphoglyceric acid

> <SYNONYMS>
(2R)-2,3-bis(phosphonooxy)-Propanoate; (2R)-2,3-bis(phosphonooxy)-Propanoic acid; (R)-2,3-bis(phosphonooxy)-Propanoate; (R)-2,3-bis(phosphonooxy)-Propanoic acid; 2,3-Bis(phosphonooxy)-Propanoate; 2,3-Bis(phosphonooxy)-Propanoic acid; 2,3-Bisphospho-D-glycerate; 2,3-Bisphospho-D-glyceric acid; 2,3-Bisphosphoglyceric acid; 2,3-Diphospho-D-glycerate; 2,3-Diphospho-D-glyceric acid; 2,3-Diphospho-D-glyceric acid pentasodium salt; 2,3-Disphospho-D-glycerate; D-Glyceric acid bis; D-Glyceric acid bis(dihydrogen phosphate); Diphosphoglycerate; Diphosphoglyceric acid; Glycerate 2,3-diphosphate; Glyceric acid bis(dihydrogen phosphate); Glyceric acid diphosphate

$$$$
