
  Mrv0541 02231218232D          

 28 27  0  0  1  0            999 V2000
   14.5146  -12.7773    0.0000 O   0  0  0  0  0  0  0  0  0  0  0  0
   15.2290  -11.5398    0.0000 O   0  0  0  0  0  0  0  0  0  0  0  0
   14.5146  -15.2524    0.0000 O   0  5  0  0  0  0  0  0  0  0  0  0
   13.8001  -14.0149    0.0000 O   0  0  0  0  0  0  0  0  0  0  0  0
   16.6580  -13.1898    0.0000 N   0  3  0  0  0  0  0  0  0  0  0  0
   15.9435  -12.7773    0.0000 C   0  0  0  0  0  0  0  0  0  0  0  0
   15.2290  -13.1898    0.0000 C   0  0  1  0  0  0  0  0  0  0  0  0
   16.2455  -13.9043    0.0000 C   0  0  0  0  0  0  0  0  0  0  0  0
   17.0705  -12.4754    0.0000 C   0  0  0  0  0  0  0  0  0  0  0  0
   17.3725  -13.6024    0.0000 C   0  0  0  0  0  0  0  0  0  0  0  0
    9.5131  -11.5398    0.0000 C   0  0  0  0  0  0  0  0  0  0  0  0
   10.2276  -11.9523    0.0000 C   0  0  0  0  0  0  0  0  0  0  0  0
    8.7987  -11.9523    0.0000 C   0  0  0  0  0  0  0  0  0  0  0  0
   10.9421  -11.5398    0.0000 C   0  0  0  0  0  0  0  0  0  0  0  0
    8.0842  -11.5398    0.0000 C   0  0  0  0  0  0  0  0  0  0  0  0
   11.6566  -11.9523    0.0000 C   0  0  0  0  0  0  0  0  0  0  0  0
    7.3696  -11.9523    0.0000 C   0  0  0  0  0  0  0  0  0  0  0  0
   15.2290  -14.0149    0.0000 C   0  0  0  0  0  0  0  0  0  0  0  0
   12.3711  -11.5398    0.0000 C   0  0  0  0  0  0  0  0  0  0  0  0
    6.6552  -11.5398    0.0000 C   0  0  0  0  0  0  0  0  0  0  0  0
   13.0855  -11.9523    0.0000 C   0  0  0  0  0  0  0  0  0  0  0  0
    5.9407  -11.9523    0.0000 C   0  0  0  0  0  0  0  0  0  0  0  0
   13.8001  -11.5398    0.0000 C   0  0  0  0  0  0  0  0  0  0  0  0
   14.5146  -11.9523    0.0000 C   0  0  0  0  0  0  0  0  0  0  0  0
    5.2263  -11.5398    0.0000 C   0  0  0  0  0  0  0  0  0  0  0  0
   14.5146  -14.4274    0.0000 C   0  0  0  0  0  0  0  0  0  0  0  0
    4.5117  -11.9523    0.0000 C   0  0  0  0  0  0  0  0  0  0  0  0
    3.7972  -11.5398    0.0000 C   0  0  0  0  0  0  0  0  0  0  0  0
  7  1  1  1  0  0  0
  1 24  1  0  0  0  0
  2 24  2  0  0  0  0
  3 26  1  0  0  0  0
  4 26  2  0  0  0  0
  5  6  1  0  0  0  0
  5  8  1  0  0  0  0
  5  9  1  0  0  0  0
  5 10  1  0  0  0  0
  6  7  1  0  0  0  0
  7 18  1  0  0  0  0
 11 12  1  0  0  0  0
 11 13  1  0  0  0  0
 12 14  1  0  0  0  0
 13 15  1  0  0  0  0
 14 16  1  0  0  0  0
 15 17  1  0  0  0  0
 16 19  1  0  0  0  0
 17 20  1  0  0  0  0
 18 26  1  0  0  0  0
 19 21  1  0  0  0  0
 20 22  1  0  0  0  0
 21 23  1  0  0  0  0
 22 25  1  0  0  0  0
 23 24  1  0  0  0  0
 25 27  1  0  0  0  0
 27 28  1  0  0  0  0
M  CHG  2   3  -1   5   1
M  END
> <DATABASE_ID>
HMDB00222

> <DATABASE_NAME>
hmdb

> <SMILES>
CCCCCCCCCCCCCCCC(=O)O[C@H](CC([O-])=O)C[N+](C)(C)C

> <INCHI_IDENTIFIER>
InChI=1S/C23H45NO4/c1-5-6-7-8-9-10-11-12-13-14-15-16-17-18-23(27)28-21(19-22(25)26)20-24(2,3)4/h21H,5-20H2,1-4H3/t21-/m1/s1

> <INCHI_KEY>
XOMRRQXKHMYMOC-OAQYLSRUSA-N

> <FORMULA>
C23H45NO4

> <MOLECULAR_WEIGHT>
399.6077

> <EXACT_MASS>
399.334858933

> <JCHEM_ACCEPTOR_COUNT>
3

> <JCHEM_AVERAGE_POLARIZABILITY>
50.41235856981533

> <JCHEM_BIOAVAILABILITY>
1

> <JCHEM_DONOR_COUNT>
0

> <JCHEM_FORMAL_CHARGE>
0

> <JCHEM_GHOSE_FILTER>
0

> <JCHEM_IUPAC>
(3R)-3-(hexadecanoyloxy)-4-(trimethylazaniumyl)butanoate

> <ALOGPS_LOGP>
1.77

> <JCHEM_LOGP>
2.033547854194921

> <ALOGPS_LOGS>
-7.58

> <JCHEM_MDDR_LIKE_RULE>
0

> <JCHEM_NUMBER_OF_RINGS>
0

> <JCHEM_PHYSIOLOGICAL_CHARGE>
0

> <JCHEM_PKA_STRONGEST_ACIDIC>
4.216763902737658

> <JCHEM_PKA_STRONGEST_BASIC>
-7.057186892022333

> <JCHEM_POLAR_SURFACE_AREA>
66.43

> <JCHEM_REFRACTIVITY>
137.07670000000002

> <JCHEM_ROTATABLE_BOND_COUNT>
20

> <JCHEM_RULE_OF_FIVE>
1

> <ALOGPS_SOLUBILITY>
1.20e-05 g/l

> <JCHEM_TRADITIONAL_IUPAC>
palmitoylcarnitine

> <JCHEM_VEBER_RULE>
0

> <HMDB_ID>
HMDB00222

> <GENERIC_NAME>
L-Palmitoylcarnitine

> <SYNONYMS>
(+)-palmitoylcarnitine; (3S)-3-hexadecanoyloxy-4-(trimethylammonio)butanoate; (3S)-3-hexadecanoyloxy-4-(trimethylammonio)butanoic acid; (3S)-3-palmitoyloxy-4-(trimethylammonio)butanoate; (3S)-3-palmitoyloxy-4-(trimethylammonio)butanoic acid; 3-Carboxy-N,N,N-trimethyl-2-[(1-oxohexadecyl)oxy]-1-Propanaminium; D-Palmitylcarnitine; Hexadecanoyl-L-carnitine; Hexadecenoyl carnitine; L(-)-Palmitylcarnitine; L-Carnitine palmitoyl ester; L-Palmitoyl-L-carnitine; Palmitoyl D-carnitine; Palmitoyl-(-)-carnitine; Palmitoyl-L-carnitine; Palmityl-L-carnitine

$$$$
