Adipic acid.mol
  Mrv0541 02231218322D          

 10  9  0  0  0  0            999 V2000
    1.7862    0.2063    0.0000 C   0  0  0  0  0  0  0  0  0  0  0  0
    1.0717   -0.2063    0.0000 C   0  0  0  0  0  0  0  0  0  0  0  0
    0.3572    0.2062    0.0000 C   0  0  0  0  0  0  0  0  0  0  0  0
   -0.3572   -0.2063    0.0000 C   0  0  0  0  0  0  0  0  0  0  0  0
   -1.0717    0.2062    0.0000 C   0  0  0  0  0  0  0  0  0  0  0  0
   -1.7862   -0.2063    0.0000 C   0  0  0  0  0  0  0  0  0  0  0  0
    1.7862    1.0313    0.0000 O   0  0  0  0  0  0  0  0  0  0  0  0
    2.5006   -0.2063    0.0000 O   0  0  0  0  0  0  0  0  0  0  0  0
   -1.7862   -1.0313    0.0000 O   0  0  0  0  0  0  0  0  0  0  0  0
   -2.5006    0.2062    0.0000 O   0  0  0  0  0  0  0  0  0  0  0  0
  1  2  1  0  0  0  0
  2  3  1  0  0  0  0
  3  4  1  0  0  0  0
  4  5  1  0  0  0  0
  5  6  1  0  0  0  0
  1  7  2  0  0  0  0
  1  8  1  0  0  0  0
  6  9  2  0  0  0  0
  6 10  1  0  0  0  0
M  END
> <DATABASE_ID>
HMDB00448

> <DATABASE_NAME>
hmdb

> <SMILES>
OC(=O)CCCCC(O)=O

> <INCHI_IDENTIFIER>
InChI=1S/C6H10O4/c7-5(8)3-1-2-4-6(9)10/h1-4H2,(H,7,8)(H,9,10)

> <INCHI_KEY>
WNLRTRBMVRJNCN-UHFFFAOYSA-N

> <FORMULA>
C6H10O4

> <MOLECULAR_WEIGHT>
146.1412

> <EXACT_MASS>
146.057908808

> <JCHEM_ACCEPTOR_COUNT>
4

> <JCHEM_AVERAGE_POLARIZABILITY>
14.238564672188518

> <JCHEM_BIOAVAILABILITY>
1

> <JCHEM_DONOR_COUNT>
2

> <JCHEM_FORMAL_CHARGE>
0

> <JCHEM_GHOSE_FILTER>
0

> <JCHEM_IUPAC>
hexanedioic acid

> <ALOGPS_LOGP>
0.13

> <JCHEM_LOGP>
0.4906543626666667

> <ALOGPS_LOGS>
-0.66

> <JCHEM_MDDR_LIKE_RULE>
0

> <JCHEM_NUMBER_OF_RINGS>
0

> <JCHEM_PHYSIOLOGICAL_CHARGE>
-2

> <JCHEM_PKA>
4.697830626774094

> <JCHEM_PKA_STRONGEST_ACIDIC>
3.9174684741961925

> <JCHEM_POLAR_SURFACE_AREA>
74.6

> <JCHEM_REFRACTIVITY>
32.739000000000004

> <JCHEM_ROTATABLE_BOND_COUNT>
5

> <JCHEM_RULE_OF_FIVE>
1

> <ALOGPS_SOLUBILITY>
3.22e+01 g/l

> <JCHEM_TRADITIONAL_IUPAC>
adipic acid

> <JCHEM_VEBER_RULE>
0

> <HMDB_ID>
HMDB00448

> <GENERIC_NAME>
Adipic acid

> <SYNONYMS>
1,6-Hexanedioate; 1,6-Hexanedioic acid; Acifloctin; Acinetten; Adi-pure; Adilactetten; Adipate; Adipic acid; Adipinate; Adipinic acid; Hexanedioate; Hexanedioic acid; Kyselina adipova; Molten adipate; Molten adipic acid

$$$$
