
  Mrv0541 02231219292D          

 95100  0  0  1  0            999 V2000
   24.7444  -14.4057    0.0000 Co  0  2  0  0  0  0  0  0  0  0  0  0
   22.6852  -21.2394    0.0000 P   0  0  0  0  0  0  0  0  0  0  0  0
   22.0327  -20.7347    0.0000 O   0  0  0  0  0  0  0  0  0  0  0  0
   23.9620  -21.2385    0.0000 O   0  0  0  0  0  0  0  0  0  0  0  0
   26.5730  -21.9347    0.0000 O   0  0  0  0  0  0  0  0  0  0  0  0
   23.7959  -19.8275    0.0000 O   0  0  0  0  0  0  0  0  0  0  0  0
   25.9389  -20.2499    0.0000 O   0  0  0  0  0  0  0  0  0  0  0  0
   23.0712  -22.0251    0.0000 O   0  0  0  0  0  0  0  0  0  0  0  0
   23.0576  -18.8179    0.0000 O   0  0  0  0  0  0  0  0  0  0  0  0
   22.9780   -9.9545    0.0000 O   0  0  0  0  0  0  0  0  0  0  0  0
   28.0365  -15.2235    0.0000 O   0  0  0  0  0  0  0  0  0  0  0  0
   29.2158  -12.6815    0.0000 O   0  0  0  0  0  0  0  0  0  0  0  0
   21.2191  -13.7368    0.0000 O   0  0  0  0  0  0  0  0  0  0  0  0
   25.3743  -10.8892    0.0000 O   0  0  0  0  0  0  0  0  0  0  0  0
   21.2362  -15.0261    0.0000 O   0  0  0  0  0  0  0  0  0  0  0  0
   22.1977  -21.9665    0.0000 O   0  5  0  0  0  0  0  0  0  0  0  0
   21.6019  -18.5950    0.0000 N   0  0  0  0  0  0  0  0  0  0  0  0
   21.4802  -10.1902    0.0000 N   0  0  0  0  0  0  0  0  0  0  0  0
   29.1087  -16.2957    0.0000 N   0  0  0  0  0  0  0  0  0  0  0  0
   29.0117  -11.1790    0.0000 N   0  0  0  0  0  0  0  0  0  0  0  0
   20.6584  -12.3281    0.0000 N   0  0  0  0  0  0  0  0  0  0  0  0
   26.7644  -10.2840    0.0000 N   0  0  0  0  0  0  0  0  0  0  0  0
   20.5711  -16.3886    0.0000 N   0  0  0  0  0  0  0  0  0  0  0  0
   25.7156  -18.7969    0.0000 N   0  0  0  0  0  0  0  0  0  0  0  0
   23.9630  -13.6661    0.0000 N   0  0  0  0  0  0  0  0  0  0  0  0
   25.5144  -13.5937    0.0000 N   0  0  0  0  0  0  0  0  0  0  0  0
   25.4601  -15.1270    0.0000 N   0  0  0  0  0  0  0  0  0  0  0  0
   23.8917  -15.2165    0.0000 N   0  5  0  0  0  0  0  0  0  0  0  0
   25.7219  -17.4621    0.0000 N   0  0  0  0  0  0  0  0  0  0  0  0
   22.1435  -19.9172    0.0000 C   0  0  1  0  0  0  0  0  0  0  0  0
   21.4910  -19.4125    0.0000 C   0  0  0  0  0  0  0  0  0  0  0  0
   23.2393  -17.1521    0.0000 C   0  0  0  0  0  0  0  0  0  0  0  0
   25.7176  -21.7488    0.0000 C   0  0  0  0  0  0  0  0  0  0  0  0
   23.2502  -11.6839    0.0000 C   0  0  0  0  0  0  0  0  0  0  0  0
   26.7720  -16.7644    0.0000 C   0  0  0  0  0  0  0  0  0  0  0  0
   27.4810  -12.9172    0.0000 C   0  0  0  0  0  0  0  0  0  0  0  0
   22.4760  -17.4649    0.0000 C   0  0  0  0  0  0  0  0  0  0  0  0
   22.4332  -11.3694    0.0000 C   0  0  0  0  0  0  0  0  0  0  0  0
   27.6441  -16.6882    0.0000 C   0  0  0  0  0  0  0  0  0  0  0  0
   27.8126  -12.1070    0.0000 C   0  0  0  0  0  0  0  0  0  0  0  0
   22.1588  -12.5468    0.0000 C   0  0  0  0  0  0  0  0  0  0  0  0
   26.5934  -11.7906    0.0000 C   0  0  0  0  0  0  0  0  0  0  0  0
   22.0837  -16.2834    0.0000 C   0  0  0  0  0  0  0  0  0  0  0  0
   23.0119  -19.8063    0.0000 C   0  0  0  0  0  0  0  0  0  0  0  0
   22.4003  -14.1180    0.0000 C   0  0  0  0  0  0  0  0  0  0  0  0
   22.0442  -13.4412    0.0000 C   0  0  0  0  0  0  0  0  0  0  0  0
   25.5643  -11.7820    0.0000 C   0  0  0  0  0  0  0  0  0  0  0  0
   27.2182  -16.3369    0.0000 C   0  0  0  0  0  0  0  0  0  0  0  0
   27.3730  -15.3196    0.0000 C   0  0  0  0  0  0  0  0  0  0  0  0
   22.5818  -16.7542    0.0000 C   0  0  0  0  0  0  0  0  0  0  0  0
   24.6948  -11.6563    0.0000 C   0  0  0  0  0  0  0  0  0  0  0  0
   24.6495  -17.1732    0.0000 C   0  0  0  0  0  0  0  0  0  0  0  0
   28.6862  -18.9934    0.0000 C   0  0  0  0  0  0  0  0  0  0  0  0
   28.6941  -17.2930    0.0000 C   0  0  0  0  0  0  0  0  0  0  0  0
   23.2054  -13.7744    0.0000 C   0  0  2  0  0  0  0  0  0  0  0  0
   22.8458  -13.0894    0.0000 C   0  0  2  0  0  0  0  0  0  0  0  0
   26.0731  -12.4945    0.0000 C   0  0  1  0  0  0  0  0  0  0  0  0
   26.5955  -15.7218    0.0000 C   0  0  0  0  0  0  0  0  0  0  0  0
   23.3501  -16.3346    0.0000 C   0  0  2  0  0  0  0  0  0  0  0  0
   25.4571  -19.5803    0.0000 C   0  0  2  0  0  0  0  0  0  0  0  0
   25.4509  -20.9150    0.0000 C   0  0  2  0  0  0  0  0  0  0  0  0
   24.6713  -19.8316    0.0000 C   0  0  1  0  0  0  0  0  0  0  0  0
   24.6675  -20.6565    0.0000 C   0  0  2  0  0  0  0  0  0  0  0  0
   23.1702  -15.1441    0.0000 C   0  0  1  0  0  0  0  0  0  0  0  0
   22.8095  -15.7940    0.0000 C   0  0  2  0  0  0  0  0  0  0  0  0
   23.3863  -12.5486    0.0000 C   0  0  1  0  0  0  0  0  0  0  0  0
   26.0550  -16.2624    0.0000 C   0  0  1  0  0  0  0  0  0  0  0  0
   26.6135  -13.0351    0.0000 C   0  0  1  0  0  0  0  0  0  0  0  0
   22.3652  -18.2823    0.0000 C   0  0  0  0  0  0  0  0  0  0  0  0
   22.2972  -10.5046    0.0000 C   0  0  0  0  0  0  0  0  0  0  0  0
   28.2632  -16.0692    0.0000 C   0  0  0  0  0  0  0  0  0  0  0  0
   28.6800  -11.9892    0.0000 C   0  0  0  0  0  0  0  0  0  0  0  0
   21.3454  -12.8706    0.0000 C   0  0  0  0  0  0  0  0  0  0  0  0
   26.2440  -10.9880    0.0000 C   0  0  0  0  0  0  0  0  0  0  0  0
   21.2970  -15.8993    0.0000 C   0  0  0  0  0  0  0  0  0  0  0  0
   24.0534  -12.8903    0.0000 C   0  0  0  0  0  0  0  0  0  0  0  0
   25.3698  -15.9387    0.0000 C   0  0  0  0  0  0  0  0  0  0  0  0
   26.2358  -13.7022    0.0000 C   0  0  0  0  0  0  0  0  0  0  0  0
   25.4059  -12.8723    0.0000 C   0  0  0  0  0  0  0  0  0  0  0  0
   26.2358  -15.0365    0.0000 C   0  0  0  0  0  0  0  0  0  0  0  0
   24.0181  -15.9559    0.0000 C   0  0  0  0  0  0  0  0  0  0  0  0
   24.7387  -12.5304    0.0000 C   0  0  0  0  0  0  0  0  0  0  0  0
   24.6845  -16.2986    0.0000 C   0  0  0  0  0  0  0  0  0  0  0  0
   26.6136  -14.3693    0.0000 C   0  0  0  0  0  0  0  0  0  0  0  0
   26.5013  -18.5456    0.0000 C   0  0  0  0  0  0  0  0  0  0  0  0
   26.5052  -17.7207    0.0000 C   0  0  0  0  0  0  0  0  0  0  0  0
   27.9301  -18.5523    0.0000 C   0  0  0  0  0  0  0  0  0  0  0  0
   27.9339  -17.7273    0.0000 C   0  0  0  0  0  0  0  0  0  0  0  0
   25.2339  -18.1273    0.0000 C   0  0  0  0  0  0  0  0  0  0  0  0
   27.2139  -18.9614    0.0000 C   0  0  0  0  0  0  0  0  0  0  0  0
   27.2214  -17.3115    0.0000 C   0  0  0  0  0  0  0  0  0  0  0  0
   26.1494  -19.4739    0.0000 H   0  0  0  0  0  0  0  0  0  0  0  0
   24.7967  -21.3448    0.0000 H   0  0  0  0  0  0  0  0  0  0  0  0
   22.4945  -14.9599    0.0000 H   0  0  0  0  0  0  0  0  0  0  0  0
   25.0346  -13.5797    0.0000 O   0  0  0  0  0  0  0  0  0  0  0  0
  2  3  1  0  0  0  0
  2  4  1  0  0  0  0
  2  8  2  0  0  0  0
  2 16  1  0  0  0  0
  3 30  1  0  0  0  0
  4 63  1  0  0  0  0
  5 33  1  0  0  0  0
 62  6  1  1  0  0  0
  7 60  1  0  0  0  0
  7 61  1  0  0  0  0
  9 69  2  0  0  0  0
 10 70  2  0  0  0  0
 11 71  2  0  0  0  0
 12 72  2  0  0  0  0
 13 73  2  0  0  0  0
 14 74  2  0  0  0  0
 15 75  2  0  0  0  0
 17 31  1  0  0  0  0
 17 69  1  0  0  0  0
 18 70  1  0  0  0  0
 19 71  1  0  0  0  0
 20 72  1  0  0  0  0
 21 73  1  0  0  0  0
 22 74  1  0  0  0  0
 23 75  1  0  0  0  0
 24 60  1  0  0  0  0
 24 85  1  0  0  0  0
 24 89  1  0  0  0  0
 25 55  1  0  0  0  0
 25 76  2  0  0  0  0
 26 78  2  0  0  0  0
 26 79  1  0  0  0  0
 27 77  2  0  0  0  0
 27 80  1  0  0  0  0
 28 64  1  0  0  0  0
 28 81  1  0  0  0  0
 29 86  1  0  0  0  0
 29 89  2  0  0  0  0
 30 31  1  0  0  0  0
 30 44  1  1  0  0  0
 32 37  1  0  0  0  0
 32 59  1  0  0  0  0
 61 33  1  6  0  0  0
 34 38  1  0  0  0  0
 66 34  1  6  0  0  0
 35 39  1  0  0  0  0
 67 35  1  6  0  0  0
 36 40  1  0  0  0  0
 68 36  1  6  0  0  0
 37 69  1  0  0  0  0
 38 70  1  0  0  0  0
 39 71  1  0  0  0  0
 40 72  1  0  0  0  0
 41 56  1  0  0  0  0
 41 73  1  0  0  0  0
 42 57  1  0  0  0  0
 42 74  1  0  0  0  0
 65 43  1  1  0  0  0
 43 75  1  0  0  0  0
 55 45  1  6  0  0  0
 56 46  1  6  0  0  0
 57 47  1  6  0  0  0
 48 58  1  0  0  0  0
 49 58  1  0  0  0  0
 59 50  1  1  0  0  0
 51 82  1  0  0  0  0
 52 83  1  0  0  0  0
 53 87  1  0  0  0  0
 54 88  1  0  0  0  0
 55 56  1  0  0  0  0
 55 64  1  0  0  0  0
 56 66  1  0  0  0  0
 57 68  1  0  0  0  0
 57 79  1  0  0  0  0
 58 67  1  0  0  0  0
 58 80  1  0  0  0  0
 59 65  1  0  0  0  0
 59 81  1  0  0  0  0
 60 62  1  0  0  0  0
 60 92  1  6  0  0  0
 61 63  1  0  0  0  0
 62 63  1  0  0  0  0
 63 93  1  6  0  0  0
 64 65  1  0  0  0  0
 64 94  1  1  0  0  0
 66 76  1  0  0  0  0
 67 77  1  0  0  0  0
 68 78  1  0  0  0  0
 76 82  1  0  0  0  0
 77 83  1  0  0  0  0
 78 84  1  0  0  0  0
 79 82  2  0  0  0  0
 80 84  2  0  0  0  0
 81 83  2  0  0  0  0
 85 86  2  0  0  0  0
 85 90  1  0  0  0  0
 86 91  1  0  0  0  0
 87 88  1  0  0  0  0
 87 90  2  0  0  0  0
 88 91  2  0  0  0  0
M  CHG  3   1   2  16  -1  28  -1
M  END
> <DATABASE_ID>
HMDB02308

> <DATABASE_NAME>
hmdb

> <SMILES>
[Co++].O.OC[C@H]1O[C@@]([H])([C@H](O)[C@]1([H])OP(=O)([O-])O[C@H](C)CNC(=O)CC[C@]1(C)[C@@H](CC(=O)N)[C@@]2([H])[N-]\C1=C(C)/C1=N/C(=C\C3=N\C(=C(C)/C4=N[C@]2(C)[C@@](C)(CC(=O)N)[C@@H]4CCC(=O)N)\[C@@](C)(CC(=O)N)[C@@H]3CCC(=O)N)/C(C)(C)[C@@H]1CCC(=O)N)N1C=NC2=C1C=C(C)C(C)=C2

> <INCHI_IDENTIFIER>
InChI=1S/C62H90N13O14P.Co.H2O/c1-29-20-39-40(21-30(29)2)75(28-70-39)57-52(84)53(41(27-76)87-57)89-90(85,86)88-31(3)26-69-49(83)18-19-59(8)37(22-46(66)80)56-62(11)61(10,25-48(68)82)36(14-17-45(65)79)51(74-62)33(5)55-60(9,24-47(67)81)34(12-15-43(63)77)38(71-55)23-42-58(6,7)35(13-16-44(64)78)50(72-42)32(4)54(59)73-56;;/h20-21,23,28,31,34-37,41,52-53,56-57,76,84H,12-19,22,24-27H2,1-11H3,(H15,63,64,65,66,67,68,69,71,72,73,74,77,78,79,80,81,82,83,85,86);;1H2/q;+2;/p-2/t31-,34-,35-,36-,37+,41-,52-,53-,56-,57+,59-,60+,61+,62+;;/m1../s1

> <INCHI_KEY>
DQOCFCZRZOAIBN-WZHZPDAFSA-L

> <FORMULA>
C62H90CoN13O15P

> <MOLECULAR_WEIGHT>
1347.3631

> <EXACT_MASS>
1346.574895981

> <JCHEM_ACCEPTOR_COUNT>
17

> <JCHEM_AVERAGE_POLARIZABILITY>
134.05136636953674

> <JCHEM_BIOAVAILABILITY>
0

> <JCHEM_DONOR_COUNT>
9

> <JCHEM_FORMAL_CHARGE>
0

> <JCHEM_GHOSE_FILTER>
0

> <JCHEM_IUPAC>
λ²-cobalt(2+) ion (1R,2R,3S,4S,8S,9S,14S,18R,19R)-4,9,14-tris(2-carbamoylethyl)-3,8,19-tris(carbamoylmethyl)-18-(2-{[(2R)-2-{[(2R,3S,4R,5S)-5-(5,6-dimethyl-1H-1,3-benzodiazol-1-yl)-4-hydroxy-2-(hydroxymethyl)oxolan-3-yl phosphonato]oxy}propyl]carbamoyl}ethyl)-2,3,6,8,13,13,16,18-octamethyl-20,21,22,23-tetraazapentacyclo[15.2.1.1²,⁵.1⁷,¹⁰.1¹²,¹⁵]tricosa-5(23),6,10(22),11,15(21),16-hexaen-20-ide hydrate

> <JCHEM_LOGP>
-2.478884599052741

> <JCHEM_MDDR_LIKE_RULE>
1

> <JCHEM_NUMBER_OF_RINGS>
8

> <JCHEM_PHYSIOLOGICAL_CHARGE>
2

> <JCHEM_PKA>
12.59082921437654

> <JCHEM_PKA_STRONGEST_ACIDIC>
1.8412304625822769

> <JCHEM_PKA_STRONGEST_BASIC>
8.982949005094465

> <JCHEM_POLAR_SURFACE_AREA>
460.0499999999999

> <JCHEM_REFRACTIVITY>
330.7190000000003

> <JCHEM_ROTATABLE_BOND_COUNT>
26

> <JCHEM_RULE_OF_FIVE>
0

> <JCHEM_TRADITIONAL_IUPAC>
λ²-cobalt(2+) ion (1R,2R,3S,4S,8S,9S,14S,18R,19R)-4,9,14-tris(2-carbamoylethyl)-3,8,19-tris(carbamoylmethyl)-18-(2-{[(2R)-2-{[(2R,3S,4R,5S)-5-(5,6-dimethyl-1,3-benzodiazol-1-yl)-4-hydroxy-2-(hydroxymethyl)oxolan-3-yl phosphonato]oxy}propyl]carbamoyl}ethyl)-2,3,6,8,13,13,16,18-octamethyl-20,21,22,23-tetraazapentacyclo[15.2.1.1²,⁵.1⁷,¹⁰.1¹²,¹⁵]tricosa-5(23),6,10(22),11,15(21),16-hexaen-20-ide hydrate

> <JCHEM_VEBER_RULE>
0

> <HMDB_ID>
HMDB02308

> <GENERIC_NAME>
Hydroxycobalamin

> <SYNONYMS>
a-(5,6-Dimethylbenzimidazolyl)hydroxocobamide; alpha Cobione; alpha-(5,6-Dimethylbenzimidazolyl)hydroxocobamide; Axlon; Ciplamin H; Cobalex; Cobalin H; Cobinamide hydroxide phosphate 3'-ester with 5,6-dimethyl-1-a-D-ribofuranosylbenzimidazole inner salt; Cobinamide hydroxide phosphate 3'-ester with 5,6-dimethyl-1-alpha-delta-ribofuranosylbenzimidazole inner salt; Codroxomin; Docclan; Docelan; Docevita; Droxomin; Ducobee Hy; Duradoce; Duralta-12; Hydrocobalamin; Hydrogrisevit; Hydrovit; Hydroxocobalamin; Hydroxocobalamine

$$$$
