Untitled Document-1
  Mrv0541 02231219322D          

 14 14  0  0  0  0            999 V2000
    1.7862    0.0000    0.0000 C   0  0  0  0  0  0  0  0  0  0  0  0
    1.0717   -0.4125    0.0000 C   0  0  0  0  0  0  0  0  0  0  0  0
    0.3572    0.0000    0.0000 N   0  0  0  0  0  0  0  0  0  0  0  0
   -0.3572   -0.4125    0.0000 C   0  0  0  0  0  0  0  0  0  0  0  0
   -0.3572   -1.2375    0.0000 O   0  0  0  0  0  0  0  0  0  0  0  0
   -1.0717    0.0000    0.0000 C   0  0  0  0  0  0  0  0  0  0  0  0
   -1.7862   -0.4125    0.0000 C   0  0  0  0  0  0  0  0  0  0  0  0
   -2.5006    0.0000    0.0000 C   0  0  0  0  0  0  0  0  0  0  0  0
   -2.5006    0.8250    0.0000 C   0  0  0  0  0  0  0  0  0  0  0  0
   -1.7862    1.2375    0.0000 C   0  0  0  0  0  0  0  0  0  0  0  0
   -1.0717    0.8250    0.0000 C   0  0  0  0  0  0  0  0  0  0  0  0
    1.7862    0.8250    0.0000 O   0  0  0  0  0  0  0  0  0  0  0  0
    2.5006   -0.4125    0.0000 O   0  0  0  0  0  0  0  0  0  0  0  0
    1.0717   -1.2375    0.0000 O   0  0  0  0  0  0  0  0  0  0  0  0
  1  2  1  0  0  0  0
  2  3  1  0  0  0  0
  3  4  1  0  0  0  0
  4  5  2  0  0  0  0
  4  6  1  0  0  0  0
  6  7  1  0  0  0  0
  7  8  2  0  0  0  0
  8  9  1  0  0  0  0
  9 10  2  0  0  0  0
 10 11  1  0  0  0  0
  6 11  2  0  0  0  0
  1 12  2  0  0  0  0
  1 13  1  0  0  0  0
  2 14  1  0  0  0  0
M  END
> <DATABASE_ID>
HMDB02404

> <DATABASE_NAME>
hmdb

> <SMILES>
OC(NC(=O)C1=CC=CC=C1)C(O)=O

> <INCHI_IDENTIFIER>
InChI=1S/C9H9NO4/c11-7(10-8(12)9(13)14)6-4-2-1-3-5-6/h1-5,8,12H,(H,10,11)(H,13,14)

> <INCHI_KEY>
GCWCVCCEIQXUQU-UHFFFAOYSA-N

> <FORMULA>
C9H9NO4

> <MOLECULAR_WEIGHT>
195.1721

> <EXACT_MASS>
195.053157781

> <JCHEM_ACCEPTOR_COUNT>
4

> <JCHEM_AVERAGE_POLARIZABILITY>
18.379274109459104

> <JCHEM_BIOAVAILABILITY>
1

> <JCHEM_DONOR_COUNT>
3

> <JCHEM_FORMAL_CHARGE>
0

> <JCHEM_GHOSE_FILTER>
1

> <JCHEM_IUPAC>
2-hydroxy-2-(phenylformamido)acetic acid

> <ALOGPS_LOGP>
0.02

> <JCHEM_LOGP>
0.23680579733333326

> <ALOGPS_LOGS>
-1.45

> <JCHEM_MDDR_LIKE_RULE>
0

> <JCHEM_NUMBER_OF_RINGS>
1

> <JCHEM_PHYSIOLOGICAL_CHARGE>
-1

> <JCHEM_PKA>
12.83844082990127

> <JCHEM_PKA_STRONGEST_ACIDIC>
2.9734107445482314

> <JCHEM_PKA_STRONGEST_BASIC>
-2.5062008247907643

> <JCHEM_POLAR_SURFACE_AREA>
86.63000000000001

> <JCHEM_REFRACTIVITY>
47.3161

> <JCHEM_ROTATABLE_BOND_COUNT>
3

> <JCHEM_RULE_OF_FIVE>
1

> <ALOGPS_SOLUBILITY>
6.98e+00 g/l

> <JCHEM_TRADITIONAL_IUPAC>
Î±-hydroxybenzoylglycine

> <JCHEM_VEBER_RULE>
0

> <HMDB_ID>
HMDB02404

> <GENERIC_NAME>
Alpha-Hydroxyhippuric acid

> <SYNONYMS>
(Benzoylamino)hydroxyacetic acid; 2-(Benzoylamino)-2-hydroxyacetic acid; a-Hydroxyhippuric acid; alpha-Hydroxybenzoylglycine; alpha-Hydroxyhippuric acid; Benzamidohydroxyacetic acid

$$$$
