
  Mrv0541 02231216492D          

  7  7  0  0  0  0            999 V2000
    0.7145    2.0625    0.0000 O   0  0  0  0  0  0  0  0  0  0  0  0
    0.7145    1.2375    0.0000 C   0  0  0  0  0  0  0  0  0  0  0  0
    1.4289    0.8250    0.0000 C   0  0  0  0  0  0  0  0  0  0  0  0
    1.4289    0.0000    0.0000 C   0  0  0  0  0  0  0  0  0  0  0  0
    0.7145   -0.4125    0.0000 C   0  0  0  0  0  0  0  0  0  0  0  0
    0.0000    0.0000    0.0000 C   0  0  0  0  0  0  0  0  0  0  0  0
    0.0000    0.8250    0.0000 C   0  0  0  0  0  0  0  0  0  0  0  0
  1  2  1  0  0  0  0
  2  3  2  0  0  0  0
  3  4  1  0  0  0  0
  4  5  2  0  0  0  0
  5  6  1  0  0  0  0
  6  7  2  0  0  0  0
  2  7  1  0  0  0  0
M  END
> <DATABASE_ID>
HMDB00228

> <DATABASE_NAME>
hmdb

> <SMILES>
OC1=CC=CC=C1

> <INCHI_IDENTIFIER>
InChI=1S/C6H6O/c7-6-4-2-1-3-5-6/h1-5,7H

> <INCHI_KEY>
ISWSIDIOOBJBQZ-UHFFFAOYSA-N

> <FORMULA>
C6H6O

> <MOLECULAR_WEIGHT>
94.1112

> <EXACT_MASS>
94.041864814

> <JCHEM_ACCEPTOR_COUNT>
1

> <JCHEM_AVERAGE_POLARIZABILITY>
9.812560861971928

> <JCHEM_BIOAVAILABILITY>
1

> <JCHEM_DONOR_COUNT>
1

> <JCHEM_FORMAL_CHARGE>
0

> <JCHEM_GHOSE_FILTER>
0

> <JCHEM_IUPAC>
phenol

> <ALOGPS_LOGP>
1.39

> <JCHEM_LOGP>
1.6696804943333332

> <ALOGPS_LOGS>
-0.31

> <JCHEM_MDDR_LIKE_RULE>
0

> <JCHEM_NUMBER_OF_RINGS>
1

> <JCHEM_PHYSIOLOGICAL_CHARGE>
0

> <JCHEM_PKA_STRONGEST_ACIDIC>
10.016150276173818

> <JCHEM_PKA_STRONGEST_BASIC>
-5.476712177992348

> <JCHEM_POLAR_SURFACE_AREA>
20.23

> <JCHEM_REFRACTIVITY>
28.038899999999998

> <JCHEM_ROTATABLE_BOND_COUNT>
0

> <JCHEM_RULE_OF_FIVE>
1

> <ALOGPS_SOLUBILITY>
4.66e+01 g/l

> <JCHEM_TRADITIONAL_IUPAC>
phenol

> <JCHEM_VEBER_RULE>
1

> <HMDB_ID>
HMDB00228

> <GENERIC_NAME>
Phenol

> <SYNONYMS>
Acide carbolique; Anbesol; Benzenol; Benzophenol; Campho-phenique cold sore gel; Campho-phenique gel; Campho-phenique liquid; Carbolic acid; Carbolic acid liquid; Carbolic oil; Carbolicum acidum; Carbolsaure; Cepastat lozenges; Cuticura pain relieving ointment; Fenol; Fenolo; Fenosmolin; Fenosmoline; Hydroxy-benzene; Hydroxybenzene; IPH; IZAL; Liquefied phenol; Liquid phenol; Liquified phenol; Monohydroxy benzene; Monohydroxybenzene; Monophenol; Oxybenzene; Paoscle; Phenic; Phenic acid; Phenic alcohol; Phenol; Phenol alcohol; Phenol homopolymer; Phenol liquid; Phenol molten; Phenol polymer-bound; Phenol solution; Phenol synthetic; Phenolated water; Phenolated water for disinfection; Phenole; Phenosmolin; Phenylic acid; Phenylic alcohol; PHOH; Synthetic phenol; Tea polyphenol

$$$$
